@<TRIPOS>MOLECULE
POS
   35    34     1     0     0
SMALL
rc


@<TRIPOS>ATOM
      1 P           23.0030    51.4520    20.2550 P          1 POS       1.166200
      2 O1P         22.3300    50.7440    21.4060 O2         1 POS      -0.776000
      3 O5'         24.5800    51.2020    20.5390 OS         1 POS      -0.524600
      4 O2P         22.9010    52.9550    20.1760 O2         1 POS      -0.776000
      5 C10         21.0050    51.3430    19.0180 CT         1 POS       0.333640
      6 C11         20.3370    50.7880    17.7450 CT         1 POS      -0.048453
      7 C12         18.8660    51.2800    17.6950 CT         1 POS       0.034624
      8 C13         18.1390    50.8340    16.4100 CT         1 POS       0.008038
      9 C14         16.6730    51.3260    16.4440 CT         1 POS       0.019540
     10 C15         15.9180    50.9770    15.1450 CT         1 POS       0.113947
     11 C16         13.6780    51.1120    14.3050 C          1 POS       0.597200
     12 C17         12.2560    51.6210    14.3890 CT         1 POS      -0.366200
     13 O98         14.0360    50.3690    13.3820 O          1 POS      -0.567900
     14 N99         14.5310    51.4570    15.2100 N          1 POS      -0.494697
     15 C01         24.7910    51.8490    21.7960 CT         1 POS       0.214522
     16 H01         24.5080    52.8990    21.7180 H1         1 POS       0.000659
     17 H02         25.8440    51.7760    22.0710 H1         1 POS       0.000659
     18 H03         24.1830    51.3650    22.5600 H1         1 POS       0.000659
     19 O01         22.3770    50.9420    19.0500 OS         1 POS      -0.538625
     20 H11         14.2430    52.0600    15.9670 H          1 POS       0.251527
     21 H12         15.9320    49.8950    14.9950 H1         1 POS       0.034246
     22 H13         16.4260    51.4470    14.2900 H1         1 POS       0.034246
     23 H14         16.1600    50.8660    17.2930 HC         1 POS       0.004303
     24 H15         16.6520    52.4090    16.5870 HC         1 POS       0.004303
     25 H16         18.1570    49.7530    16.3170 HC         1 POS      -0.004201
     26 H17         18.6430    51.2550    15.5340 HC         1 POS      -0.004201
     27 H18         18.3330    50.9050    18.5640 HC         1 POS      -0.028577
     28 H19         18.8470    52.3690    17.7460 HC         1 POS      -0.028577
     29 H23         20.8780    51.2370    16.9120 HC         1 POS       0.021994
     30 H24         20.3560    49.6990    17.7160 HC         1 POS       0.021994
     31 H25         20.9440    52.4310    19.0150 H1         1 POS      -0.020586
     32 H26         20.4920    50.9530    19.8970 H1         1 POS      -0.020586
     33 H95         12.0160    52.1960    13.5070 HC         1 POS       0.112300
     34 H96         12.1390    52.2500    15.2600 HC         1 POS       0.112300
     35 H97         11.5690    50.7900    14.4640 HC         1 POS       0.112300
@<TRIPOS>BOND
     1     1     3 1   
     2     1     4 1   
     3     1     2 1   
     4     3    15 1   
     5     5     6 1   
     6     5    19 1   
     7     5    31 1   
     8     5    32 1   
     9     6     7 1   
    10     6    29 1   
    11     6    30 1   
    12     7     8 1   
    13     7    27 1   
    14     7    28 1   
    15     8     9 1   
    16     8    25 1   
    17     8    26 1   
    18     9    10 1   
    19     9    23 1   
    20     9    24 1   
    21    10    14 1   
    22    10    21 1   
    23    10    22 1   
    24    11    12 1   
    25    11    13 2   
    26    11    14 1   
    27    12    33 1   
    28    12    34 1   
    29    12    35 1   
    30    14    20 1   
    31    15    16 1   
    32    15    17 1   
    33    15    18 1   
    34     1    19 1   
@<TRIPOS>SUBSTRUCTURE
     1 POS         1 TEMP              0 ****  ****    0 ROOT
