@<TRIPOS>MOLECULE
RAO
63 64 2
SMALL
USER_CHARGES
@<TRIPOS>ATOM
1	P1	6.493	7.034	-6.104	P	1	POS	1.165900
2	O3P	5.202	6.281	-6.321	O2	1	POS	-0.776100
3	O4P	6.503	8.178	-5.121	O2	1	POS	-0.776100
4	O01	6.845	7.605	-7.390	OS	1	POS	-0.538081
5	C10	5.870	8.583	-7.761	CT	1	POS	0.333113
6	C11	6.236	9.179	-9.134	CT	1	POS	-0.048957
7	C12	5.203	10.279	-9.496	CT	1	POS	0.035134
8	C13	5.536	10.986	-10.825	CT	1	POS	0.007925
9	C14	4.450	12.041	-11.140	CT	1	POS	0.019489
10	C15	4.774	12.837	-12.421	CT	1	POS	0.113937
11	C16	3.708	14.474	-13.809	C	1	POS	0.597200
12	C17	2.620	15.493	-14.065	CT	1	POS	-0.366200
13	O98	4.584	14.249	-14.655	O	1	POS	-0.567900
14	N99	3.724	13.828	-12.691	N	1	POS	-0.494649
15	H11	3.010	14.005	-12.000	H	1	POS	0.251508
16	H12	4.864	12.149	-13.265	H1	1	POS	0.034245
17	H13	5.737	13.353	-12.296	H1	1	POS	0.034245
18	H14	3.487	11.538	-11.264	HC	1	POS	0.004309
19	H15	4.359	12.737	-10.303	HC	1	POS	0.004309
20	H16	5.591	10.268	-11.637	HC	1	POS	-0.004179
21	H17	6.510	11.481	-10.748	HC	1	POS	-0.004179
22	H18	4.213	9.835	-9.557	HC	1	POS	-0.028664
23	H19	5.176	11.025	-8.701	HC	1	POS	-0.028664
24	H21	7.208	9.652	-8.997	HC	1	POS	0.022097
25	H22	6.248	8.421	-9.918	HC	1	POS	0.022097
26	H23	5.849	9.377	-7.015	H1	1	POS	-0.020418
27	H24	4.888	8.114	-7.819	H1	1	POS	-0.020418
28	H95	3.056	16.467	-14.228	HC	1	POS	0.112300
29	H96	1.954	15.545	-13.216	HC	1	POS	0.112300
30	H97	2.049	15.213	-14.939	HC	1	POS	0.112300
31	P	3.063	8.025	-4.135	P	2	RA	1.166200
32	O1P	3.223	8.856	-5.350	O.2	2	RA	-0.776000
33	O2P	1.891	7.121	-4.118	O	2	RA	-0.776000
34	C5'	5.621	7.881	-3.587	C.3	2	RA	0.055800
35	O5'	4.397	7.181	-3.881	O.3	2	RA	-0.498900
36	C4'	6.718	6.889	-3.258	C.3	2	RA	0.106500
37	O4'	6.486	6.363	-1.919	O.3	2	RA	-0.354800
38	C3'	6.776	5.641	-4.140	C.3	2	RA	0.202200
39	O3'	7.398	5.908	-5.390	O	2	RA	-0.524600
40	C2'	7.566	4.726	-3.208	C.3	2	RA	0.067000
41	O2'	8.949	5.085	-3.166	O.3	2	RA	-0.613900
42	C1'	6.874	5.000	-1.877	C.3	2	RA	0.039400
43	N1	5.134	0.481	-0.167	N.2	2	RA	-0.761500
44	C2	6.356	1.001	-0.262	C.2	2	RA	0.587500
45	N3	6.725	2.179	-0.716	N.2	2	RA	-0.699700
46	C4	5.655	2.893	-1.121	C.2	2	RA	0.305300
47	C5	4.348	2.496	-1.086	C.2	2	RA	0.051500
48	C6	4.082	1.215	-0.578	C.2	2	RA	0.700900
49	N6	2.849	0.697	-0.485	N.pl3	2	RA	-0.901900
50	N7	3.524	3.496	-1.584	N.2	2	RA	-0.607300
51	C8	4.345	4.449	-1.900	C.2	2	RA	0.200600
52	N9	5.666	4.158	-1.647	N.pl3	2	RA	-0.025100
53	HO'2	9.266	5.035	-2.261	H	2	RA	0.418600
54	H2	7.166	0.359	0.086	H	2	RA	0.047300
55	H8	4.018	5.396	-2.328	H	2	RA	0.155300
56	H1'	7.560	4.764	-1.063	H	2	RA	0.200700
57	H3'	5.823	5.221	-4.460	H	2	RA	0.061500
58	H4'	7.638	7.457	-3.394	H	2	RA	0.117400
59	H61	2.718	-0.232	-0.111	H	2	RA	0.411500
60	H62	2.051	1.236	-0.789	H	2	RA	0.411500
61	H2'1	7.570	3.677	-3.505	H	2	RA	0.097200
62	H5'1	5.462	8.536	-2.730	H	2	RA	0.067900
63	H5'2	5.916	8.473	-4.453	H	2	RA	0.067900
@<TRIPOS>BOND
1 1 2 1
2 1 3 1
3 1 4 1
4 4 5 1
5 5 6 1
6 5 26 1
7 5 27 1
8 6 7 1
9 6 24 1
10 6 25 1
11 7 8 1
12 7 22 1
13 7 23 1
14 8 9 1
15 8 20 1
16 8 21 1
17 9 10 1
18 9 18 1
19 9 19 1
20 10 14 1
21 10 16 1
22 10 17 1
23 11 12 1
24 11 13 2
25 11 14 1
26 12 28 1
27 12 29 1
28 12 30 1
29 14 15 1
30 31 32 2
31 31 33 1
32 31 35 1
33 34 35 1
34 34 36 1
35 34 62 1
36 34 63 1
37 36 37 1
38 36 38 1
39 36 58 1
40 37 42 1
41 38 39 1
42 38 40 1
43 38 57 1
44 40 41 1
45 40 42 1
46 40 61 1
47 41 53 1
48 42 52 1
49 42 56 1
50 43 44 1
51 43 48 2
52 44 45 2
53 44 54 1
54 45 46 1
55 46 47 2
56 46 52 1
57 47 48 1
58 47 50 1
59 48 49 1
60 49 59 1
61 49 60 1
62 50 51 2
63 51 52 1
64 51 55 1
@<TRIPOS>SUBSTRUCTURE
1 POS 1 GROUP 1 **** POS
2 RA 31 GROUP 1 **** RA
