@<TRIPOS>MOLECULE
DAP
89 91 3
SMALL
USER_CHARGES
@<TRIPOS>ATOM
1	O01	-0.988	-8.274	-2.870	OS	1	DAP	-0.540116
2	C10	-2.307	-8.710	-3.209	CT	1	DAP	0.337652
3	C11	-2.914	-7.750	-4.250	CT	1	DAP	-0.059584
4	C12	-4.365	-8.202	-4.563	CT	1	DAP	0.041626
5	C13	-5.080	-7.250	-5.543	CT	1	DAP	0.006917
6	C14	-6.503	-7.779	-5.838	CT	1	DAP	0.017795
7	C15	-7.296	-6.822	-6.752	CT	1	DAP	0.115447
8	C16	-9.401	-6.801	-7.896	C	1	DAP	0.597200
9	C17	-10.784	-7.361	-8.145	CT	1	DAP	-0.366200
10	O98	-8.988	-5.820	-8.527	O	1	DAP	-0.567900
11	N99	-8.641	-7.354	-7.012	N	1	DAP	-0.494803
12	H11	-8.972	-8.157	-6.497	H	1	DAP	0.251530
13	H12	-6.759	-6.689	-7.694	H1	1	DAP	0.033869
14	H13	-7.381	-5.840	-6.265	H1	1	DAP	0.033869
15	H14	-6.429	-8.758	-6.320	HC	1	DAP	0.004519
16	H15	-7.049	-7.908	-4.900	HC	1	DAP	0.004519
17	H16	-4.524	-7.169	-6.471	HC	1	DAP	-0.003782
18	H17	-5.149	-6.249	-5.104	HC	1	DAP	-0.003782
19	H18	-4.346	-9.206	-4.979	HC	1	DAP	-0.029758
20	H19	-4.938	-8.244	-3.637	HC	1	DAP	-0.029758
21	H21	-2.955	-6.777	-3.761	HC	1	DAP	0.023921
22	H22	-2.334	-7.729	-5.172	HC	1	DAP	0.023921
23	H23	-2.929	-8.715	-2.314	H1	1	DAP	-0.020951
24	H24	-2.261	-9.716	-3.625	H1	1	DAP	-0.020951
25	H95	-11.531	-6.609	-7.941	HC	1	DAP	0.112300
26	H96	-10.959	-8.212	-7.502	HC	1	DAP	0.112300
27	H97	-10.876	-7.677	-9.174	HC	1	DAP	0.112300
28	P	-0.356	-9.218	-1.848	P	2	DAP	1.165900
29	O1P	-0.311	-10.489	-2.605	O.2	2	DAP	-0.776100
30	O2P	-1.334	-9.156	-0.740	O.3	2	DAP	-0.776100
31	C5'	2.021	-8.156	-2.146	C.3	2	DAP	-0.006900
32	O5'	1.105	-8.869	-1.295	O.3	2	DAP	-0.495400
33	C4'	2.726	-7.072	-1.355	C.3	2	DAP	0.162900
34	O4'	1.986	-5.817	-1.352	O.3	2	DAP	-0.369100
35	C3'	2.952	-7.370	0.127	C.3	2	DAP	0.071300
36	O3'	4.210	-6.832	0.518	O.3	2	DAP	-0.523200
37	C2'	1.848	-6.598	0.850	C.3	2	DAP	-0.085400
38	C1'	1.913	-5.344	-0.016	C.3	2	DAP	0.043100
39	N1	0.158	-0.514	-0.016	N.2	2	DAP	-0.762400
40	C2	1.380	-1.027	-0.154	C.2	2	DAP	0.571600
41	N3	1.758	-2.286	-0.143	N.2	2	DAP	-0.741700
42	C4	0.700	-3.103	0.037	C.2	2	DAP	0.380000
43	C5	-0.604	-2.728	0.192	C.2	2	DAP	0.072500
44	C6	-0.881	-1.351	0.162	C.2	2	DAP	0.689700
45	N6	-2.113	-0.841	0.301	N.pl3	2	DAP	-0.912300
46	N7	-1.415	-3.843	0.354	N.2	2	DAP	-0.617500
47	C8	-0.589	-4.841	0.292	C.2	2	DAP	0.160700
48	N9	0.711	-4.472	0.101	N.pl3	2	DAP	-0.026800
49	H2	2.179	-0.300	-0.296	H	2	DAP	0.059800
50	H8	-0.904	-5.880	0.384	H	2	DAP	0.187700
51	H1'	2.762	-4.737	0.298	H	2	DAP	0.183800
52	H3'	2.938	-8.438	0.347	H	2	DAP	0.098500
53	H4'	3.682	-7.016	-1.876	H	2	DAP	0.117600
54	H61	-2.252	0.159	0.271	H	2	DAP	0.416700
55	H62	-2.902	-1.457	0.435	H	2	DAP	0.416700
56	H2'1	1.969	-6.459	1.924	H	2	DAP	0.071800
57	H2'2	0.881	-7.097	0.793	H	2	DAP	0.071800
58	H5'1	1.466	-7.698	-2.965	H	2	DAP	0.075400
59	H5'2	2.760	-8.851	-2.545	H	2	DAP	0.075400
60	P1	5.267	-7.619	-0.426	P	3	DAP	1.165900
61	O3P	5.089	-9.059	-0.008	O2	3	DAP	-0.776100
62	O4P	4.851	-7.218	-1.819	O2	3	DAP	-0.776100
63	O01	6.690	-7.350	-0.338	OS	3	DAP	-0.538081
64	C10	7.386	-8.137	-1.308	CT	3	DAP	0.333113
65	C11	8.899	-7.861	-1.203	CT	3	DAP	-0.048957
66	C12	9.634	-8.677	-2.300	CT	3	DAP	0.035134
67	C13	11.152	-8.402	-2.319	CT	3	DAP	0.007925
68	C14	11.824	-9.272	-3.407	CT	3	DAP	0.019489
69	C15	13.334	-8.980	-3.527	CT	3	DAP	0.113937
70	C16	15.223	-9.866	-4.705	C	3	DAP	0.597200
71	C17	15.827	-10.736	-5.785	CT	3	DAP	-0.366200
72	O98	15.940	-9.195	-3.951	O	3	DAP	-0.567900
73	N99	13.941	-9.822	-4.567	N	3	DAP	-0.494649
74	H11	13.352	-10.369	-5.178	H	3	DAP	0.251508
75	H12	13.818	-9.167	-2.566	H1	3	DAP	0.034245
76	H13	13.481	-7.921	-3.784	H1	3	DAP	0.034245
77	H14	11.680	-10.328	-3.162	HC	3	DAP	0.004309
78	H15	11.348	-9.085	-4.373	HC	3	DAP	0.004309
79	H16	11.593	-8.625	-1.353	HC	3	DAP	-0.004179
80	H17	11.334	-7.345	-2.536	HC	3	DAP	-0.004179
81	H18	9.458	-9.736	-2.137	HC	3	DAP	-0.028664
82	H19	9.222	-8.423	-3.277	HC	3	DAP	-0.028664
83	H21	9.018	-6.801	-1.425	HC	3	DAP	0.022097
84	H22	9.295	-8.130	-0.225	HC	3	DAP	0.022097
85	H23	7.038	-7.875	-2.307	H1	3	DAP	-0.020418
86	H24	7.196	-9.194	-1.123	H1	3	DAP	-0.020418
87	H95	16.402	-10.130	-6.470	HC	3	DAP	0.112300
88	H96	15.045	-11.240	-6.334	HC	3	DAP	0.112300
89	H97	16.477	-11.478	-5.343	HC	3	DAP	0.112300
@<TRIPOS>BOND
1 1 2 1
2 2 3 1
3 2 23 1
4 2 24 1
5 3 4 1
6 3 21 1
7 3 22 1
8 4 5 1
9 4 19 1
10 4 20 1
11 5 6 1
12 5 17 1
13 5 18 1
14 6 7 1
15 6 15 1
16 6 16 1
17 7 11 1
18 7 13 1
19 7 14 1
20 8 9 1
21 8 10 2
22 8 11 1
23 9 25 1
24 9 26 1
25 9 27 1
26 11 12 1
27 1 28 1
28 28 29 2
29 28 30 1
30 28 32 1
31 31 32 1
32 31 33 1
33 31 58 1
34 31 59 1
35 33 34 1
36 33 35 1
37 33 53 1
38 34 38 1
39 35 36 1
40 35 37 1
41 35 52 1
42 37 38 1
43 37 56 1
44 37 57 1
45 38 48 1
46 38 51 1
47 39 40 1
48 39 44 2
49 40 41 2
50 40 49 1
51 41 42 1
52 42 43 2
53 42 48 1
54 43 44 1
55 43 46 1
56 44 45 1
57 45 54 1
58 45 55 1
59 46 47 2
60 47 48 1
61 47 50 1
62 60 61 1
63 60 62 1
64 60 63 1
65 63 64 1
66 64 65 1
67 64 85 1
68 64 86 1
69 65 66 1
70 65 83 1
71 65 84 1
72 66 67 1
73 66 81 1
74 66 82 1
75 67 68 1
76 67 79 1
77 67 80 1
78 68 69 1
79 68 77 1
80 68 78 1
81 69 73 1
82 69 75 1
83 69 76 1
84 70 71 1
85 70 72 2
86 70 73 1
87 71 87 1
88 71 88 1
89 71 89 1
90 73 74 1
91 36 60 1
@<TRIPOS>SUBSTRUCTURE
1 DAP 1 GROUP 1 **** DAP
2 DAP 28 GROUP 2 **** DAP
3 DAP 60 GROUP 3 **** DAP
