@<TRIPOS>MOLECULE
RGP
91 93 3
SMALL
USER_CHARGES
@<TRIPOS>ATOM
1	O01	2.659	9.073	-3.098	OS	1	RGP	-0.540116
2	C10	1.420	9.687	-3.461	CT	1	RGP	0.337652
3	C11	1.045	10.747	-2.407	CT	1	RGP	-0.059584
4	C12	-0.329	11.363	-2.782	CT	1	RGP	0.041626
5	C13	-0.822	12.385	-1.737	CT	1	RGP	0.006917
6	C14	-2.174	12.983	-2.191	CT	1	RGP	0.017795
7	C15	-2.756	13.954	-1.143	CT	1	RGP	0.115447
8	C16	-4.602	15.471	-0.962	C	1	RGP	0.597200
9	C17	-5.923	16.020	-1.453	CT	1	RGP	-0.366200
10	O98	-4.053	15.934	0.046	O	1	RGP	-0.567900
11	N99	-4.037	14.504	-1.605	N	1	RGP	-0.494803
12	H11	-4.479	14.125	-2.430	H	1	RGP	0.251530
13	H12	-2.045	14.764	-0.962	H1	1	RGP	0.033869
14	H13	-2.910	13.418	-0.195	H1	1	RGP	0.033869
15	H14	-2.031	13.517	-3.135	HC	1	RGP	0.004519
16	H15	-2.892	12.179	-2.367	HC	1	RGP	0.004519
17	H16	-0.097	13.181	-1.610	HC	1	RGP	-0.003782
18	H17	-0.951	11.890	-0.768	HC	1	RGP	-0.003782
19	H18	-0.253	11.844	-3.753	HC	1	RGP	-0.029758
20	H19	-1.070	10.568	-2.869	HC	1	RGP	-0.029758
21	H21	0.932	10.201	-1.470	HC	1	RGP	0.023921
22	H22	1.791	11.539	-2.341	HC	1	RGP	0.023921
23	H23	0.638	8.930	-3.507	H1	1	RGP	-0.020951
24	H24	1.522	10.164	-4.435	H1	1	RGP	-0.020951
25	H95	-6.678	15.903	-0.690	HC	1	RGP	0.112300
26	H96	-6.237	15.489	-2.341	HC	1	RGP	0.112300
27	H97	-5.823	17.069	-1.690	HC	1	RGP	0.112300
28	P	3.063	8.025	-4.135	P	2	RGP	1.166200
29	O1P	3.223	8.856	-5.350	O.2	2	RGP	-0.776000
30	O2P	1.891	7.121	-4.118	O	2	RGP	-0.776000
31	C5'	5.621	7.881	-3.587	C.3	2	RGP	0.055800
32	O5'	4.397	7.181	-3.881	O.3	2	RGP	-0.498900
33	C4'	6.718	6.889	-3.258	C.3	2	RGP	0.106500
34	O4'	6.486	6.363	-1.919	O.3	2	RGP	-0.354800
35	C3'	6.776	5.641	-4.140	C.3	2	RGP	0.202200
36	O3'	7.398	5.908	-5.390	O	2	RGP	-0.524600
37	C2'	7.566	4.726	-3.208	C.3	2	RGP	0.067000
38	O2'	8.949	5.085	-3.166	O.3	2	RGP	-0.613900
39	C1'	6.874	5.000	-1.877	C.3	2	RGP	0.019100
40	N1	5.185	0.505	-0.172	N.pl3	2	RGP	-0.478700
41	C2	6.474	0.995	-0.248	C.2	2	RGP	0.765700
42	N2	7.438	0.180	0.188	N.pl3	2	RGP	-0.967200
43	N3	6.771	2.203	-0.722	N.2	2	RGP	-0.632300
44	C4	5.664	2.886	-1.117	C.2	2	RGP	0.122200
45	C5	4.351	2.483	-1.079	C.2	2	RGP	0.174400
46	C6	4.033	1.195	-0.574	C.2	2	RGP	0.477000
47	O6	2.932	0.661	-0.462	O.2	2	RGP	-0.559700
48	N7	3.516	3.480	-1.579	N.2	2	RGP	-0.570900
49	C8	4.342	4.447	-1.899	C.2	2	RGP	0.137400
50	N9	5.666	4.158	-1.647	N.pl3	2	RGP	0.049200
51	HO'2	9.266	5.035	-2.261	H	2	RGP	0.418600
52	H1	5.063	-0.425	0.203	H	2	RGP	0.342400
53	H8	4.011	5.394	-2.326	H	2	RGP	0.164000
54	H1'	7.560	4.764	-1.063	H	2	RGP	0.200600
55	H21	8.403	0.478	0.160	H	2	RGP	0.436400
56	H3'	5.823	5.221	-4.460	H	2	RGP	0.061500
57	H22	7.203	-0.735	0.546	H	2	RGP	0.436400
58	H4'	7.638	7.457	-3.394	H	2	RGP	0.117400
59	H2'1	7.570	3.677	-3.505	H	2	RGP	0.097200
60	H5'1	5.462	8.536	-2.730	H	2	RGP	0.067900
61	H5'2	5.916	8.473	-4.453	H	2	RGP	0.067900
62	P1	6.493	7.034	-6.104	P	3	RGP	1.165900
63	O3P	5.202	6.281	-6.321	O2	3	RGP	-0.776100
64	O4P	6.503	8.178	-5.121	O2	3	RGP	-0.776100
65	O01	6.845	7.605	-7.390	OS	3	RGP	-0.538081
66	C10	5.870	8.583	-7.761	CT	3	RGP	0.333113
67	C11	6.236	9.179	-9.134	CT	3	RGP	-0.048957
68	C12	5.203	10.279	-9.496	CT	3	RGP	0.035134
69	C13	5.536	10.986	-10.825	CT	3	RGP	0.007925
70	C14	4.450	12.041	-11.140	CT	3	RGP	0.019489
71	C15	4.774	12.837	-12.421	CT	3	RGP	0.113937
72	C16	3.708	14.474	-13.809	C	3	RGP	0.597200
73	C17	2.620	15.493	-14.065	CT	3	RGP	-0.366200
74	O98	4.584	14.249	-14.655	O	3	RGP	-0.567900
75	N99	3.724	13.828	-12.691	N	3	RGP	-0.494649
76	H11	3.010	14.005	-12.000	H	3	RGP	0.251508
77	H12	4.864	12.149	-13.265	H1	3	RGP	0.034245
78	H13	5.737	13.353	-12.296	H1	3	RGP	0.034245
79	H14	3.487	11.538	-11.264	HC	3	RGP	0.004309
80	H15	4.359	12.737	-10.303	HC	3	RGP	0.004309
81	H16	5.591	10.268	-11.637	HC	3	RGP	-0.004179
82	H17	6.510	11.481	-10.748	HC	3	RGP	-0.004179
83	H18	4.213	9.835	-9.557	HC	3	RGP	-0.028664
84	H19	5.176	11.025	-8.701	HC	3	RGP	-0.028664
85	H21	7.208	9.652	-8.997	HC	3	RGP	0.022097
86	H22	6.248	8.421	-9.918	HC	3	RGP	0.022097
87	H23	5.849	9.377	-7.015	H1	3	RGP	-0.020418
88	H24	4.888	8.114	-7.819	H1	3	RGP	-0.020418
89	H95	3.056	16.467	-14.228	HC	3	RGP	0.112300
90	H96	1.954	15.545	-13.216	HC	3	RGP	0.112300
91	H97	2.049	15.213	-14.939	HC	3	RGP	0.112300
@<TRIPOS>BOND
1 1 2 1
2 1 28 1
3 2 3 1
4 2 23 1
5 2 24 1
6 3 4 1
7 3 21 1
8 3 22 1
9 4 5 1
10 4 19 1
11 4 20 1
12 5 6 1
13 5 17 1
14 5 18 1
15 6 7 1
16 6 15 1
17 6 16 1
18 7 11 1
19 7 13 1
20 7 14 1
21 8 9 1
22 8 10 2
23 8 11 1
24 9 25 1
25 9 26 1
26 9 27 1
27 11 12 1
28 28 29 2
29 28 30 1
30 28 32 1
31 31 32 1
32 31 33 1
33 31 60 1
34 31 61 1
35 33 34 1
36 33 35 1
37 33 58 1
38 34 39 1
39 35 36 1
40 35 37 1
41 35 56 1
42 37 38 1
43 37 39 1
44 37 59 1
45 38 51 1
46 39 50 1
47 39 54 1
48 40 41 1
49 40 46 1
50 40 52 1
51 41 42 1
52 41 43 2
53 42 55 1
54 42 57 1
55 43 44 1
56 44 45 2
57 44 50 1
58 45 46 1
59 45 48 1
60 46 47 2
61 48 49 2
62 49 50 1
63 49 53 1
64 62 63 1
65 62 64 1
66 62 65 1
67 65 66 1
68 66 67 1
69 66 87 1
70 66 88 1
71 67 68 1
72 67 85 1
73 67 86 1
74 68 69 1
75 68 83 1
76 68 84 1
77 69 70 1
78 69 81 1
79 69 82 1
80 70 71 1
81 70 79 1
82 70 80 1
83 71 75 1
84 71 77 1
85 71 78 1
86 72 73 1
87 72 74 2
88 72 75 1
89 73 89 1
90 73 90 1
91 73 91 1
92 75 76 1
93 36 62 1
@<TRIPOS>SUBSTRUCTURE
1 RGP 1 GROUP 1 **** RGP
2 RGP 28 GROUP 2 **** RGP
3 RGP 62 GROUP 3 **** RGP
