@<TRIPOS>MOLECULE
deoxyadenosine
32 34 1                 
SMALL
USER_CHARGES
@<TRIPOS>ATOM
  1     P -0.356  -9.218 -1.848      P  1  DA  1.1659
  2   O1P -0.311 -10.489 -2.605    O.2  1  DA -0.7761
  3   O2P -1.334  -9.156 -0.740    O.3  1  DA -0.7761
  4   C5'  2.021  -8.156 -2.146    C.3  1  DA -0.0069
  5   O5'  1.105  -8.869 -1.295    O.3  1  DA -0.4954
  6   C4'  2.726  -7.072 -1.355    C.3  1  DA  0.1629
  7   O4'  1.986  -5.817 -1.352    O.3  1  DA -0.3691
  8   C3'  2.952  -7.370  0.127    C.3  1  DA  0.0713
  9   O3'  4.210  -6.832  0.518    O.3  1  DA -0.5232
 10   C2'  1.848  -6.598  0.850    C.3  1  DA -0.0854
 11   C1'  1.913  -5.344 -0.016    C.3  1  DA  0.0431
 12    N1  0.158  -0.514 -0.016    N.2  1  DA -0.7624
 13    C2  1.380  -1.027 -0.154    C.2  1  DA  0.5716
 14    N3  1.758  -2.286 -0.143    N.2  1  DA -0.7417
 15    C4  0.700  -3.103  0.037    C.2  1  DA  0.3800
 16    C5 -0.604  -2.728  0.192    C.2  1  DA  0.0725
 17    C6 -0.881  -1.351  0.162    C.2  1  DA  0.6897
 18    N6 -2.113  -0.841  0.301  N.pl3  1  DA -0.9123
 19    N7 -1.415  -3.843  0.354    N.2  1  DA -0.6175
 20    C8 -0.589  -4.841  0.292    C.2  1  DA  0.1607
 21    N9  0.711  -4.472  0.101  N.pl3  1  DA -0.0268
 22  H5'1  1.466  -7.698 -2.965      H  1  DA  0.0754
 23  H5'2  2.760  -8.851 -2.545      H  1  DA  0.0754
 24   H4'  3.682  -7.016 -1.876      H  1  DA  0.1176
 25   H3'  2.938  -8.438  0.347      H  1  DA  0.0985
 26  H2'1  1.969  -6.459  1.924      H  1  DA  0.0718
 27  H2'2  0.881  -7.097  0.793      H  1  DA  0.0718
 28   H1'  2.762  -4.737  0.298      H  1  DA  0.1838
 29    H2  2.179  -0.300 -0.296      H  1  DA  0.0598
 30   H61 -2.252   0.159  0.271      H  1  DA  0.4167
 31   H62 -2.902  -1.457  0.435      H  1  DA  0.4167
 32    H8 -0.904  -5.880  0.384      H  1  DA  0.1877
@<TRIPOS>BOND
1 1 2 2
2 1 3 1
3 1 5 1
4 4 5 1
5 4 6 1
6 4 22 1
7 4 23 1
8 6 7 1
9 6 8 1
10 6 24 1
11 7 11 1
12 8 9 1
13 8 10 1
14 8 25 1
15 10 11 1
16 10 26 1
17 10 27 1
18 11 21 1
19 11 28 1
20 12 13 1
21 12 17 2
22 13 14 2
23 13 29 1
24 14 15 1
25 15 16 2
26 15 21 1
27 16 17 1
28 16 19 1
29 17 18 1
30 18 30 1
31 18 31 1
32 19 20 2
33 20 21 1
34 20 32 1
@<TRIPOS>SUBSTRUCTURE
1	DA  	1	GROUP	1 ****	DA
