# created with PyMOL 2.3.3
@<TRIPOS>MOLECULE
oxythymidine
33 34 1                 
SMALL
USER_CHARGES
@<TRIPOS>ATOM
1	   P	-0.605	9.159	1.930	 P	1	RU	1.1662	
2	 O1P	-0.202	10.577	1.789	O.2	1	RU	-0.7760	
3	 O2P	-1.926	8.802	1.365	 O	1	RU	-0.7760	
4	 C5'	1.831	8.198	1.901	C.3	1	RU	0.0558	
5	 O5'	0.521	8.214	1.303	O.3	1	RU	-0.4989	
6	 C4'	2.694	7.146	1.232	C.3	1	RU	0.1065	
7	 O4'	2.268	5.831	1.695	O.3	1	RU	-0.3548	
8	 C3'	2.576	7.059	-0.290	C.3	1	RU	0.2022	
9	 O3'	3.326	8.078	-0.936	 O	1	RU	-0.5246	
10	 C2'	3.108	5.640	-0.490	C.3	1	RU	0.0670	
11	 O2'	4.499	5.399	-0.403	O.3	1	RU	-0.6139
12	 C1'	2.385	4.899	0.630	C.3	1	RU	0.0634	
13	  N1	1.026	4.422	0.251	N.pl3	1	RU	-0.0239	
14	  C2	0.946	3.210	-0.390	C.2	1	RU	0.5677	
15	  O2	1.924	2.531	-0.652	O.2	1	RU	-0.5881	
16	  N3	-0.330	2.799	-0.725	N.pl3	1	RU	-0.4340	
17	  C4	-1.503	3.484	-0.479	C.2	1	RU	0.5194	
18	  O4	-2.588	3.015	-0.827	O.2	1	RU	-0.5563	
19	  C5	-1.316	4.746	0.199	C.2	1	RU	0.0025	
20	  C6	-0.087	5.169	0.537	C.2	1	RU	-0.2209	
21	  C7	-2.541	5.616	0.538	C.3	1	RU	-0.2269	
22	 H71	-2.805	6.225	-0.326	 H	1	RU	0.0770	
23	 H72	-2.304	6.264	1.382	 H	1	RU	0.0770	
24	 H73	-3.381	4.973	0.799	 H	1	RU	0.0770	
25	HO'2	4.674	4.469	-0.567	 H	1	RU	0.4186	
26	  H3	-0.413	1.910	-1.198	 H	1	RU	0.3420	
27	  H6	0.027	6.125	1.048	 H	1	RU	0.2607	
28	 H1'	2.951	4.005	0.890	 H	1	RU	0.1794	
29	 H3'	1.586	7.219	-0.716	 H	1	RU	0.0615	
30	 H4'	3.713	7.434	1.488	 H	1	RU	0.1174	
31	H2'1	2.929	5.337	-1.522	 H	1	RU	0.0972	
32	H5'1	1.738	7.961	2.962	 H	1	RU	0.0679	
33	H5'2	2.296	9.176	1.782	 H	1	RU	0.0679	
@<TRIPOS>BOND
1 1 2 2
2 1 3 1
3 1 5 1
4 4 5 1
5 4 6 1
6 4 32 1
7 4 33 1
8 6 7 1
9 6 8 1
10 6 30 1
11 7 12 1
12 8 9 1
13 8 10 1
14 8 29 1
15 10 11 1
16 10 12 1
17 10 31 1
18 11 25 1
19 12 13 1
20 12 28 1
21 13 14 1
22 13 20 1
23 14 15 2
24 14 16 1
25 16 17 1
26 16 26 1
27 17 18 2
28 17 19 1
29 19 20 2
30 19 21 1
31 20 27 1
32 21 22 1
33 21 23 1
34 21 24 1
@<TRIPOS>SUBSTRUCTURE
1	RU 	1	GROUP	1 A	RU
