# created with PyMOL 2.3.3
@<TRIPOS>MOLECULE
A35_L1R
84 87 3                 
SMALL
USER_CHARGES
@<TRIPOS>ATOM
1	  C1	3.275	18.324	-18.893	C.3	1	A351	0.000	
2	  N1	2.867	18.728	-21.139	N.3	1	A351	0.000	
3	  S1	0.868	16.395	-21.512	S.3	1	A351	0.000	
4	  C2	2.612	17.975	-20.052	C.3	1	A351	0.000	
5	  C3	1.734	16.893	-20.068	C.3	1	A351	0.000	
6	  O3	1.226	17.142	-22.683	 O	1	A351	0.000	
7	  C4	1.521	16.167	-18.895	C.3	1	A351	0.000	
8	  O4	-0.462	16.557	-21.012	 O	1	A351	0.000	
9	  C5	2.192	16.519	-17.713	C.3	1	A351	0.000	
10	  O5	0.888	14.970	-21.457	 O	1	A351	0.000	
11	  C6	3.061	17.600	-17.737	C.3	1	A351	0.000	
12	  O6	4.581	14.245	-14.643	 O	1	A351	0.000	
13	  C7	1.992	15.774	-16.512	C.3	1	A351	0.000	
14	  C8	2.676	16.234	-15.399	C.3	1	A351	0.000	
15	  C9	3.550	17.411	-15.460	C.3	1	A351	0.000	
16	 C10	1.055	14.601	-16.438	C.3	1	A351	0.000	
17	 C11	2.617	15.491	-14.058	C.3	1	A351	0.000	
18	 O91	3.708	17.999	-16.632	O.3	1	A351	0.000	
19	 O92	4.085	17.919	-14.485	 O	1	A351	0.000	
20	 C99	3.714	14.480	-13.828	C.3	1	A351	0.000	
21	  H1	2.373	18.490	-22.003	 H	1	A351	0.000	
22	  H2	3.511	19.507	-21.096	 H	1	A351	0.000	
23	  H3	1.468	13.756	-16.990	 H	1	A351	0.000	
24	  H4	0.852	14.249	-15.426	 H	1	A351	0.000	
25	  H5	0.081	14.851	-16.869	 H	1	A351	0.000	
26	  H6	0.831	15.316	-18.928	 H	1	A351	0.000	
27	  H7	3.961	19.161	-18.884	 H	1	A351	0.000	
28	  H8	1.643	14.993	-13.934	 H	1	A351	0.000	
29	  H9	2.676	16.183	-13.220	 H	1	A351	0.000	
30	  P1	6.493	7.034	-6.104	P.3	2	POS1	1.166	
31	 O3P	5.202	6.281	-6.321	Du	2	POS1	-0.776	
32	 O4P	6.503	8.178	-5.121	Du	2	POS1	-0.776	
33	 O01	6.845	7.605	-7.390	Os	2	POS1	-0.539	
34	 C10	5.870	8.583	-7.761	C.3	2	POS1	0.334	
35	 C11	6.236	9.179	-9.134	C.3	2	POS1	-0.048	
36	 C12	5.203	10.279	-9.496	C.3	2	POS1	0.035	
37	 C13	5.536	10.986	-10.825	C.3	2	POS1	0.008	
38	 C14	4.450	12.041	-11.140	C.3	2	POS1	0.020	
39	 C15	4.774	12.837	-12.421	C.3	2	POS1	0.114	
40	 N99	3.724	13.828	-12.691	N.3	2	POS1	-0.495	
41	 H11	3.010	14.005	-12.000	 H	2	POS1	0.252	
42	 H12	4.864	12.149	-13.265	 H	2	POS1	0.034	
43	 H13	5.737	13.353	-12.296	 H	2	POS1	0.034	
44	 H14	3.487	11.538	-11.264	 H	2	POS1	0.004	
45	 H15	4.359	12.737	-10.303	 H	2	POS1	0.004	
46	 H16	5.591	10.268	-11.637	 H	2	POS1	-0.004	
47	 H17	6.510	11.481	-10.748	 H	2	POS1	-0.004	
48	 H18	4.213	9.835	-9.557	 H	2	POS1	-0.029	
49	 H19	5.176	11.025	-8.701	 H	2	POS1	-0.029	
50	 H23	7.208	9.652	-8.997	 H	2	POS1	0.022	
51	 H24	6.248	8.421	-9.918	 H	2	POS1	0.022	
52	 H25	5.849	9.377	-7.015	 H	2	POS1	-0.021	
53	 H26	4.888	8.114	-7.819	 H	2	POS1	-0.021	
54	   P	3.063	8.025	-4.135	 P	3	RC2	1.166	
55	 O1P	3.223	8.856	-5.350	O.2	3	RC2	-0.776	
56	 O2P	1.891	7.121	-4.118	 O	3	RC2	-0.776	
57	 C5'	5.621	7.881	-3.587	C.3	3	RC2	0.056	
58	 O5'	4.397	7.181	-3.881	O.3	3	RC2	-0.499	
59	 C4'	6.718	6.889	-3.258	C.3	3	RC2	0.106	
60	 O4'	6.486	6.363	-1.919	O.3	3	RC2	-0.355	
61	 C3'	6.776	5.641	-4.140	C.3	3	RC2	0.202	
62	 O3'	7.398	5.908	-5.390	O.3	3	RC2	-0.525	
63	 C2'	7.566	4.726	-3.208	C.3	3	RC2	0.067	
64	 O2'	8.949	5.085	-3.166	O.3	3	RC2	-0.614	
65	 C1'	6.874	5.000	-1.877	C.3	3	RC2	0.007	
66	  N1	5.666	4.158	-1.647	N.pl3	3	RC2	-0.048	
67	  C2	5.853	2.891	-1.100	C.2	3	RC2	0.754	
68	  O2	7.001	2.521	-0.831	O.2	3	RC2	-0.625	
69	  N3	4.764	2.108	-0.883	N.2	3	RC2	-0.758	
70	  C4	3.536	2.547	-1.188	C.2	3	RC2	0.818	
71	  N4	2.508	1.746	-0.956	N.pl3	3	RC2	-0.953	
72	  C5	3.323	3.847	-1.751	C.2	3	RC2	-0.521	
73	  C6	4.423	4.613	-1.961	C.2	3	RC2	0.005	
74	HO'2	9.266	5.035	-2.261	 H	3	RC2	0.419	
75	  H5	2.324	4.204	-1.999	 H	3	RC2	0.193	
76	  H6	4.309	5.609	-2.388	 H	3	RC2	0.196	
77	 H1'	7.560	4.764	-1.063	 H	3	RC2	0.203	
78	 H3'	5.823	5.221	-4.460	 H	3	RC2	0.062	
79	 H4'	7.638	7.457	-3.394	 H	3	RC2	0.117	
80	 H41	1.571	2.051	-1.176	 H	3	RC2	0.423	
81	 H42	2.661	0.830	-0.559	 H	3	RC2	0.423	
82	H2'1	7.570	3.677	-3.505	 H	3	RC2	0.097	
83	H5'1	5.462	8.536	-2.730	 H	3	RC2	0.068	
84	H5'2	5.916	8.473	-4.453	 H	3	RC2	0.068	
@<TRIPOS>BOND
1 1 4 1
2 1 11 1
3 1 27 1
4 2 4 1
5 2 21 1
6 2 22 1
7 3 5 1
8 3 6 1
9 3 8 1
10 3 10 1
11 4 5 1
12 5 7 1
13 7 9 1
14 7 26 1
15 9 11 1
16 9 13 1
17 11 18 1
18 12 20 1
19 13 14 1
20 13 16 1
21 14 15 1
22 14 17 1
23 15 18 1
24 15 19 1
25 16 23 1
26 16 24 1
27 16 25 1
28 17 20 1
29 17 28 1
30 17 29 1
31 30 31 1
32 30 32 1
33 30 33 1
34 30 62 1
35 33 34 1
36 34 35 1
37 34 52 1
38 34 53 1
39 35 36 1
40 35 50 1
41 35 51 1
42 36 37 1
43 36 48 1
44 36 49 1
45 37 38 1
46 37 46 1
47 37 47 1
48 38 39 1
49 38 44 1
50 38 45 1
51 39 40 1
52 39 42 1
53 39 43 1
54 40 41 1
55 54 55 2
56 54 56 1
57 54 58 1
58 57 58 1
59 57 59 1
60 57 83 1
61 57 84 1
62 59 60 1
63 59 61 1
64 59 79 1
65 60 65 1
66 61 62 1
67 61 63 1
68 61 78 1
69 63 64 1
70 63 65 1
71 63 82 1
72 64 74 1
73 65 66 1
74 65 77 1
75 66 67 1
76 66 73 1
77 67 68 2
78 67 69 1
79 69 70 2
80 70 71 1
81 70 72 1
82 71 80 1
83 71 81 1
84 72 73 2
85 72 75 1
86 73 76 1
87 20 40 1
@<TRIPOS>SUBSTRUCTURE
1	A351	1	GROUP	1 ****	A35
2	POS1	30	GROUP	1 ****	POS
3	RC2	54	GROUP	1 ****	RC
