# created with PyMOL 2.3.3
@<TRIPOS>MOLECULE
A48_L1R
101 106 3               
SMALL
USER_CHARGES
@<TRIPOS>ATOM
1	  C1	-4.120	18.315	-15.780	C.3	1	A481	0.000	
2	  N1	0.076	23.396	-12.659	N.3	1	A481	0.000	
3	  S1	-2.703	22.915	-13.715	S.3	1	A481	0.000	
4	  C2	-4.230	17.021	-16.271	C.3	1	A481	0.000	
5	  N2	-5.384	16.544	-16.770	N.3	1	A481	0.000	
6	  S2	-5.514	19.358	-15.745	S.3	1	A481	0.000	
7	  C3	-3.142	16.155	-16.277	C.3	1	A481	0.000	
8	  O3	-2.464	23.369	-15.052	 O	1	A481	0.000	
9	  C4	-1.916	16.564	-15.770	C.3	1	A481	0.000	
10	  O4	-3.954	22.253	-13.737	 O	1	A481	0.000	
11	  C5	-1.777	17.875	-15.267	C.3	1	A481	0.000	
12	  O5	-6.714	18.830	-16.338	 O	1	A481	0.000	
13	  C6	-2.870	18.767	-15.284	C.3	1	A481	0.000	
14	  O6	-5.069	20.635	-16.198	 O	1	A481	0.000	
15	  C7	-0.545	18.295	-14.732	C.3	1	A481	0.000	
16	  O7	-5.605	19.473	-14.313	 O	1	A481	0.000	
17	  C8	-0.400	19.603	-14.221	C.3	1	A481	0.000	
18	  O8	2.509	17.616	-17.650	 O	1	A481	0.000	
19	  C9	-1.504	20.489	-14.259	C.3	1	A481	0.000	
20	  O9	0.670	18.556	-17.212	 O	1	A481	0.000	
21	 C10	-1.360	21.787	-13.726	C.3	1	A481	0.000	
22	 O10	4.581	14.246	-14.644	 O	1	A481	0.000	
23	 C11	0.826	20.017	-13.671	C.3	1	A481	0.000	
24	 C12	0.947	21.306	-13.151	C.3	1	A481	0.000	
25	 C13	-0.135	22.175	-13.187	C.3	1	A481	0.000	
26	 C14	0.556	17.348	-14.586	C.3	1	A481	0.000	
27	 C15	0.603	16.647	-13.361	C.3	1	A481	0.000	
28	 C16	1.617	15.717	-13.104	C.3	1	A481	0.000	
29	 C17	2.631	15.480	-14.057	C.3	1	A481	0.000	
30	 C18	2.591	16.203	-15.263	C.3	1	A481	0.000	
31	 C19	1.571	17.131	-15.570	C.3	1	A481	0.000	
32	 C20	1.582	17.828	-16.880	C.3	1	A481	0.000	
33	 O91	-2.708	20.059	-14.793	O.3	1	A481	0.000	
34	 O92	-2.515	24.052	-12.863	 O	1	A481	0.000	
35	 C99	3.701	14.490	-13.828	C.3	1	A481	0.000	
36	  H1	-0.726	24.032	-12.623	 H	1	A481	0.000	
37	  H2	0.907	23.606	-12.120	 H	1	A481	0.000	
38	  H3	-6.186	17.161	-16.796	 H	1	A481	0.000	
39	  H4	-5.415	15.637	-17.237	 H	1	A481	0.000	
40	  H5	1.597	15.201	-12.144	 H	1	A481	0.000	
41	  H6	-0.158	16.830	-12.608	 H	1	A481	0.000	
42	  H7	3.368	16.021	-16.002	 H	1	A481	0.000	
43	  H8	1.690	19.356	-13.618	 H	1	A481	0.000	
44	  H9	1.886	21.622	-12.725	 H	1	A481	0.000	
45	 H10	-1.083	15.855	-15.782	 H	1	A481	0.000	
46	 H11	-3.265	15.149	-16.668	 H	1	A481	0.000	
47	  P1	6.493	7.034	-6.104	P.3	2	POS1	1.166	
48	 O3P	5.202	6.281	-6.321	Du	2	POS1	-0.776	
49	 O4P	6.503	8.178	-5.121	Du	2	POS1	-0.776	
50	 O01	6.845	7.605	-7.390	Os	2	POS1	-0.539	
51	 C10	5.870	8.583	-7.761	C.3	2	POS1	0.334	
52	 C11	6.236	9.179	-9.134	C.3	2	POS1	-0.048	
53	 C12	5.203	10.279	-9.496	C.3	2	POS1	0.035	
54	 C13	5.536	10.986	-10.825	C.3	2	POS1	0.008	
55	 C14	4.450	12.041	-11.140	C.3	2	POS1	0.020	
56	 C15	4.774	12.837	-12.421	C.3	2	POS1	0.114	
57	 N99	3.724	13.828	-12.691	N.3	2	POS1	-0.495	
58	 H11	3.010	14.005	-12.000	 H	2	POS1	0.252	
59	 H12	4.864	12.149	-13.265	 H	2	POS1	0.034	
60	 H13	5.737	13.353	-12.296	 H	2	POS1	0.034	
61	 H14	3.487	11.538	-11.264	 H	2	POS1	0.004	
62	 H15	4.359	12.737	-10.303	 H	2	POS1	0.004	
63	 H16	5.591	10.268	-11.637	 H	2	POS1	-0.004	
64	 H17	6.510	11.481	-10.748	 H	2	POS1	-0.004	
65	 H18	4.213	9.835	-9.557	 H	2	POS1	-0.029	
66	 H19	5.176	11.025	-8.701	 H	2	POS1	-0.029	
67	 H23	7.208	9.652	-8.997	 H	2	POS1	0.022	
68	 H24	6.248	8.421	-9.918	 H	2	POS1	0.022	
69	 H25	5.849	9.377	-7.015	 H	2	POS1	-0.021	
70	 H26	4.888	8.114	-7.819	 H	2	POS1	-0.021	
71	   P	3.063	8.025	-4.135	 P	3	RC2	1.166	
72	 O1P	3.223	8.856	-5.350	O.2	3	RC2	-0.776	
73	 O2P	1.891	7.121	-4.118	 O	3	RC2	-0.776	
74	 C5'	5.621	7.881	-3.587	C.3	3	RC2	0.056	
75	 O5'	4.397	7.181	-3.881	O.3	3	RC2	-0.499	
76	 C4'	6.718	6.889	-3.258	C.3	3	RC2	0.106	
77	 O4'	6.486	6.363	-1.919	O.3	3	RC2	-0.355	
78	 C3'	6.776	5.641	-4.140	C.3	3	RC2	0.202	
79	 O3'	7.398	5.908	-5.390	O.3	3	RC2	-0.525	
80	 C2'	7.566	4.726	-3.208	C.3	3	RC2	0.067	
81	 O2'	8.949	5.085	-3.166	O.3	3	RC2	-0.614	
82	 C1'	6.874	5.000	-1.877	C.3	3	RC2	0.007	
83	  N1	5.666	4.158	-1.647	N.pl3	3	RC2	-0.048	
84	  C2	5.853	2.891	-1.100	C.2	3	RC2	0.754	
85	  O2	7.001	2.521	-0.831	O.2	3	RC2	-0.625	
86	  N3	4.764	2.108	-0.883	N.2	3	RC2	-0.758	
87	  C4	3.536	2.547	-1.188	C.2	3	RC2	0.818	
88	  N4	2.508	1.746	-0.956	N.pl3	3	RC2	-0.953	
89	  C5	3.323	3.847	-1.751	C.2	3	RC2	-0.521	
90	  C6	4.423	4.613	-1.961	C.2	3	RC2	0.005	
91	HO'2	9.266	5.035	-2.261	 H	3	RC2	0.419	
92	  H5	2.324	4.204	-1.999	 H	3	RC2	0.193	
93	  H6	4.309	5.609	-2.388	 H	3	RC2	0.196	
94	 H1'	7.560	4.764	-1.063	 H	3	RC2	0.203	
95	 H3'	5.823	5.221	-4.460	 H	3	RC2	0.062	
96	 H4'	7.638	7.457	-3.394	 H	3	RC2	0.117	
97	 H41	1.571	2.051	-1.176	 H	3	RC2	0.423	
98	 H42	2.661	0.830	-0.559	 H	3	RC2	0.423	
99	H2'1	7.570	3.677	-3.505	 H	3	RC2	0.097	
100	H5'1	5.462	8.536	-2.730	 H	3	RC2	0.068	
101	H5'2	5.916	8.473	-4.453	 H	3	RC2	0.068	
@<TRIPOS>BOND
1 1 4 1
2 1 6 1
3 1 13 1
4 2 25 1
5 2 36 1
6 2 37 1
7 3 8 1
8 3 10 1
9 3 21 1
10 3 34 1
11 4 5 1
12 4 7 1
13 5 38 1
14 5 39 1
15 6 12 1
16 6 14 1
17 6 16 1
18 7 9 1
19 7 46 1
20 9 11 1
21 9 45 1
22 11 13 1
23 11 15 1
24 13 33 1
25 15 17 1
26 15 26 1
27 17 19 1
28 17 23 1
29 18 32 1
30 19 21 1
31 19 33 1
32 20 32 1
33 21 25 1
34 22 35 1
35 23 24 1
36 23 43 1
37 24 25 1
38 24 44 1
39 26 27 1
40 26 31 1
41 27 28 1
42 27 41 1
43 28 29 1
44 28 40 1
45 29 30 1
46 29 35 1
47 30 31 1
48 30 42 1
49 31 32 1
50 47 48 1
51 47 49 1
52 47 50 1
53 47 79 1
54 50 51 1
55 51 52 1
56 51 69 1
57 51 70 1
58 52 53 1
59 52 67 1
60 52 68 1
61 53 54 1
62 53 65 1
63 53 66 1
64 54 55 1
65 54 63 1
66 54 64 1
67 55 56 1
68 55 61 1
69 55 62 1
70 56 57 1
71 56 59 1
72 56 60 1
73 57 58 1
74 71 72 2
75 71 73 1
76 71 75 1
77 74 75 1
78 74 76 1
79 74 100 1
80 74 101 1
81 76 77 1
82 76 78 1
83 76 96 1
84 77 82 1
85 78 79 1
86 78 80 1
87 78 95 1
88 80 81 1
89 80 82 1
90 80 99 1
91 81 91 1
92 82 83 1
93 82 94 1
94 83 84 1
95 83 90 1
96 84 85 2
97 84 86 1
98 86 87 2
99 87 88 1
100 87 89 1
101 88 97 1
102 88 98 1
103 89 90 2
104 89 92 1
105 90 93 1
106 35 57 1
@<TRIPOS>SUBSTRUCTURE
1	A481	1	GROUP	1 ****	A48
2	POS1	47	GROUP	1 ****	POS
3	RC2	71	GROUP	1 ****	RC
