# created with PyMOL 2.3.3
@<TRIPOS>MOLECULE
A53_L1R
125 132 3               
SMALL
USER_CHARGES
@<TRIPOS>ATOM
1	  C1	-1.526	21.813	-14.247	C.3	1	A531	0.000	
2	  N1	-0.094	23.514	-13.213	N.3	1	A531	0.000	
3	  S1	-5.352	18.989	-16.643	S.3	1	A531	0.000	
4	  C2	-0.340	22.272	-13.669	C.3	1	A531	0.000	
5	  N2	-4.818	16.058	-17.458	N.3	1	A531	0.000	
6	  S2	-2.877	22.912	-14.383	S.3	1	A531	0.000	
7	  C3	0.752	21.461	-13.477	C.3	1	A531	0.000	
8	  O3	-4.111	22.199	-14.463	 O	1	A531	0.000	
9	  C4	0.735	20.123	-13.852	C.3	1	A531	0.000	
10	  O4	-2.516	23.536	-15.628	 O	1	A531	0.000	
11	  C5	-0.436	19.623	-14.469	C.3	1	A531	0.000	
12	  O5	-5.205	20.386	-16.403	 O	1	A531	0.000	
13	  C6	-1.577	20.459	-14.671	C.3	1	A531	0.000	
14	  O6	-6.083	18.287	-15.628	 O	1	A531	0.000	
15	  C7	-0.483	18.267	-14.870	C.3	1	A531	0.000	
16	  O7	-5.989	18.510	-17.838	 O	1	A531	0.000	
17	  C8	-1.632	17.761	-15.521	C.3	1	A531	0.000	
18	  O8	4.570	14.251	-14.639	 O	1	A531	0.000	
19	  C9	-2.750	18.610	-15.734	C.3	1	A531	0.000	
20	 C10	-3.893	18.083	-16.383	C.3	1	A531	0.000	
21	 C11	-1.637	16.426	-15.956	C.3	1	A531	0.000	
22	 C12	-2.761	15.940	-16.606	C.3	1	A531	0.000	
23	 C13	-3.856	16.745	-16.810	C.3	1	A531	0.000	
24	 C14	1.217	23.659	-12.609	C.3	1	A531	0.000	
25	 C15	1.883	22.230	-12.825	C.3	1	A531	0.000	
26	 C16	-2.985	14.561	-17.167	C.3	1	A531	0.000	
27	 C17	-4.452	14.693	-17.756	C.3	1	A531	0.000	
28	 C18	-5.544	13.815	-17.125	C.3	1	A531	0.000	
29	 C19	-1.961	14.260	-18.291	C.3	1	A531	0.000	
30	 C20	1.868	24.871	-13.290	C.3	1	A531	0.000	
31	 C21	3.116	22.225	-13.753	C.3	1	A531	0.000	
32	 C22	2.277	21.573	-11.496	C.3	1	A531	0.000	
33	 C23	-2.804	13.489	-16.062	C.3	1	A531	0.000	
34	 C24	0.624	17.359	-14.608	C.3	1	A531	0.000	
35	 C25	1.651	17.124	-15.540	C.3	1	A531	0.000	
36	 C26	2.645	16.179	-15.278	C.3	1	A531	0.000	
37	 C27	2.640	15.473	-14.058	C.3	1	A531	0.000	
38	 C28	1.633	15.727	-13.116	C.3	1	A531	0.000	
39	 C29	0.636	16.652	-13.392	C.3	1	A531	0.000	
40	 O91	-2.714	19.922	-15.285	O.3	1	A531	0.000	
41	 O92	-2.745	23.997	-13.456	 O	1	A531	0.000	
42	 C99	3.702	14.492	-13.831	C.3	1	A531	0.000	
43	  H1	-5.685	16.514	-17.746	 H	1	A531	0.000	
44	  H2	-0.793	24.238	-13.258	 H	1	A531	0.000	
45	  H3	1.308	25.774	-13.044	 H	1	A531	0.000	
46	  H4	2.895	25.005	-12.951	 H	1	A531	0.000	
47	  H5	1.861	24.754	-14.379	 H	1	A531	0.000	
48	  H6	3.902	22.865	-13.343	 H	1	A531	0.000	
49	  H7	3.520	21.216	-13.865	 H	1	A531	0.000	
50	  H8	2.855	22.599	-14.743	 H	1	A531	0.000	
51	  H9	2.668	20.567	-11.647	 H	1	A531	0.000	
52	 H10	1.409	21.503	-10.831	 H	1	A531	0.000	
53	 H11	3.049	22.166	-10.995	 H	1	A531	0.000	
54	 H12	1.613	19.503	-13.686	 H	1	A531	0.000	
55	 H13	-0.789	15.745	-15.818	 H	1	A531	0.000	
56	 H14	-3.004	12.489	-16.455	 H	1	A531	0.000	
57	 H15	-3.489	13.683	-15.237	 H	1	A531	0.000	
58	 H16	-1.796	13.508	-15.671	 H	1	A531	0.000	
59	 H17	-2.030	15.014	-19.068	 H	1	A531	0.000	
60	 H18	-0.940	14.278	-17.893	 H	1	A531	0.000	
61	 H19	-2.139	13.275	-18.728	 H	1	A531	0.000	
62	 H20	-5.708	14.086	-16.077	 H	1	A531	0.000	
63	 H21	-5.291	12.752	-17.155	 H	1	A531	0.000	
64	 H22	-6.484	13.957	-17.667	 H	1	A531	0.000	
65	 H23	1.651	17.651	-16.493	 H	1	A531	0.000	
66	 H24	3.421	16.005	-16.026	 H	1	A531	0.000	
67	 H25	1.593	15.210	-12.160	 H	1	A531	0.000	
68	 H26	-0.156	16.821	-12.662	 H	1	A531	0.000	
69	 H27	1.101	23.856	-11.542	 H	1	A531	0.000	
70	 H28	-4.442	14.539	-18.838	 H	1	A531	0.000	
71	  P1	6.493	7.034	-6.104	P.3	2	POS1	1.166	
72	 O3P	5.202	6.281	-6.321	Du	2	POS1	-0.776	
73	 O4P	6.503	8.178	-5.121	Du	2	POS1	-0.776	
74	 O01	6.845	7.605	-7.390	Os	2	POS1	-0.539	
75	 C10	5.870	8.583	-7.761	C.3	2	POS1	0.334	
76	 C11	6.236	9.179	-9.134	C.3	2	POS1	-0.048	
77	 C12	5.203	10.279	-9.496	C.3	2	POS1	0.035	
78	 C13	5.536	10.986	-10.825	C.3	2	POS1	0.008	
79	 C14	4.450	12.041	-11.140	C.3	2	POS1	0.020	
80	 C15	4.774	12.837	-12.421	C.3	2	POS1	0.114	
81	 N99	3.724	13.828	-12.691	N.3	2	POS1	-0.495	
82	 H11	3.010	14.005	-12.000	 H	2	POS1	0.252	
83	 H12	4.864	12.149	-13.265	 H	2	POS1	0.034	
84	 H13	5.737	13.353	-12.296	 H	2	POS1	0.034	
85	 H14	3.487	11.538	-11.264	 H	2	POS1	0.004	
86	 H15	4.359	12.737	-10.303	 H	2	POS1	0.004	
87	 H16	5.591	10.268	-11.637	 H	2	POS1	-0.004	
88	 H17	6.510	11.481	-10.748	 H	2	POS1	-0.004	
89	 H18	4.213	9.835	-9.557	 H	2	POS1	-0.029	
90	 H19	5.176	11.025	-8.701	 H	2	POS1	-0.029	
91	 H23	7.208	9.652	-8.997	 H	2	POS1	0.022	
92	 H24	6.248	8.421	-9.918	 H	2	POS1	0.022	
93	 H25	5.849	9.377	-7.015	 H	2	POS1	-0.021	
94	 H26	4.888	8.114	-7.819	 H	2	POS1	-0.021	
95	   P	3.063	8.025	-4.135	 P	3	RC2	1.166	
96	 O1P	3.223	8.856	-5.350	O.2	3	RC2	-0.776	
97	 O2P	1.891	7.121	-4.118	 O	3	RC2	-0.776	
98	 C5'	5.621	7.881	-3.587	C.3	3	RC2	0.056	
99	 O5'	4.397	7.181	-3.881	O.3	3	RC2	-0.499	
100	 C4'	6.718	6.889	-3.258	C.3	3	RC2	0.106	
101	 O4'	6.486	6.363	-1.919	O.3	3	RC2	-0.355	
102	 C3'	6.776	5.641	-4.140	C.3	3	RC2	0.202	
103	 O3'	7.398	5.908	-5.390	O.3	3	RC2	-0.525	
104	 C2'	7.566	4.726	-3.208	C.3	3	RC2	0.067	
105	 O2'	8.949	5.085	-3.166	O.3	3	RC2	-0.614	
106	 C1'	6.874	5.000	-1.877	C.3	3	RC2	0.007	
107	  N1	5.666	4.158	-1.647	N.pl3	3	RC2	-0.048	
108	  C2	5.853	2.891	-1.100	C.2	3	RC2	0.754	
109	  O2	7.001	2.521	-0.831	O.2	3	RC2	-0.625	
110	  N3	4.764	2.108	-0.883	N.2	3	RC2	-0.758	
111	  C4	3.536	2.547	-1.188	C.2	3	RC2	0.818	
112	  N4	2.508	1.746	-0.956	N.pl3	3	RC2	-0.953	
113	  C5	3.323	3.847	-1.751	C.2	3	RC2	-0.521	
114	  C6	4.423	4.613	-1.961	C.2	3	RC2	0.005	
115	HO'2	9.266	5.035	-2.261	 H	3	RC2	0.419	
116	  H5	2.324	4.204	-1.999	 H	3	RC2	0.193	
117	  H6	4.309	5.609	-2.388	 H	3	RC2	0.196	
118	 H1'	7.560	4.764	-1.063	 H	3	RC2	0.203	
119	 H3'	5.823	5.221	-4.460	 H	3	RC2	0.062	
120	 H4'	7.638	7.457	-3.394	 H	3	RC2	0.117	
121	 H41	1.571	2.051	-1.176	 H	3	RC2	0.423	
122	 H42	2.661	0.830	-0.559	 H	3	RC2	0.423	
123	H2'1	7.570	3.677	-3.505	 H	3	RC2	0.097	
124	H5'1	5.462	8.536	-2.730	 H	3	RC2	0.068	
125	H5'2	5.916	8.473	-4.453	 H	3	RC2	0.068	
@<TRIPOS>BOND
1 1 4 1
2 1 6 1
3 1 13 1
4 2 4 1
5 2 24 1
6 2 44 1
7 3 12 1
8 3 14 1
9 3 16 1
10 3 20 1
11 4 7 1
12 5 23 1
13 5 27 1
14 5 43 1
15 6 8 1
16 6 10 1
17 6 41 1
18 7 9 1
19 7 25 1
20 9 11 1
21 9 54 1
22 11 13 1
23 11 15 1
24 13 40 1
25 15 17 1
26 15 34 1
27 17 19 1
28 17 21 1
29 18 42 1
30 19 20 1
31 19 40 1
32 20 23 1
33 21 22 1
34 21 55 1
35 22 23 1
36 22 26 1
37 24 25 1
38 24 30 1
39 24 69 1
40 25 31 1
41 25 32 1
42 26 27 1
43 26 29 1
44 26 33 1
45 27 28 1
46 27 70 1
47 28 62 1
48 28 63 1
49 28 64 1
50 29 59 1
51 29 60 1
52 29 61 1
53 30 45 1
54 30 46 1
55 30 47 1
56 31 48 1
57 31 49 1
58 31 50 1
59 32 51 1
60 32 52 1
61 32 53 1
62 33 56 1
63 33 57 1
64 33 58 1
65 34 35 1
66 34 39 1
67 35 36 1
68 35 65 1
69 36 37 1
70 36 66 1
71 37 38 1
72 37 42 1
73 38 39 1
74 38 67 1
75 39 68 1
76 71 72 1
77 71 73 1
78 71 74 1
79 71 103 1
80 74 75 1
81 75 76 1
82 75 93 1
83 75 94 1
84 76 77 1
85 76 91 1
86 76 92 1
87 77 78 1
88 77 89 1
89 77 90 1
90 78 79 1
91 78 87 1
92 78 88 1
93 79 80 1
94 79 85 1
95 79 86 1
96 80 81 1
97 80 83 1
98 80 84 1
99 81 82 1
100 95 96 2
101 95 97 1
102 95 99 1
103 98 99 1
104 98 100 1
105 98 124 1
106 98 125 1
107 100 101 1
108 100 102 1
109 100 120 1
110 101 106 1
111 102 103 1
112 102 104 1
113 102 119 1
114 104 105 1
115 104 106 1
116 104 123 1
117 105 115 1
118 106 107 1
119 106 118 1
120 107 108 1
121 107 114 1
122 108 109 2
123 108 110 1
124 110 111 2
125 111 112 1
126 111 113 1
127 112 121 1
128 112 122 1
129 113 114 2
130 113 116 1
131 114 117 1
132 42 81 1
@<TRIPOS>SUBSTRUCTURE
1	A531	1	GROUP	1 ****	A53
2	POS1	71	GROUP	1 ****	POS
3	RC2	95	GROUP	1 ****	RC
