# created with PyMOL 2.3.3
@<TRIPOS>MOLECULE
A56_L1R
130 137 3               
SMALL
USER_CHARGES
@<TRIPOS>ATOM
1	  C1	1.651	24.107	-12.115	C.3	1	A561	0.000	
2	  N1	0.607	23.691	-13.021	N.3	1	A561	0.000	
3	  S1	-1.781	13.675	-17.944	S.3	1	A561	0.000	
4	  C2	2.711	23.067	-11.951	C.3	1	A561	0.000	
5	  N2	-5.211	17.773	-17.372	N.3	1	A561	0.000	
6	  S2	3.370	20.038	-10.510	S.3	1	A561	0.000	
7	  C3	2.587	21.802	-12.389	C.3	1	A561	0.000	
8	  O3	3.007	21.069	-9.583	 O	1	A561	0.000	
9	  C4	1.398	21.411	-13.174	C.3	1	A561	0.000	
10	  O4	4.622	19.457	-10.151	 O	1	A561	0.000	
11	  C5	0.443	22.410	-13.450	C.3	1	A561	0.000	
12	  O5	-0.644	14.523	-17.790	 O	1	A561	0.000	
13	  C6	-0.711	22.126	-14.180	C.3	1	A561	0.000	
14	  O6	-2.434	13.797	-19.217	 O	1	A561	0.000	
15	  C7	1.166	20.100	-13.652	C.3	1	A561	0.000	
16	  O7	-1.552	12.318	-17.533	 O	1	A561	0.000	
17	  C8	-0.016	19.807	-14.378	C.3	1	A561	0.000	
18	  O8	2.743	17.625	-17.693	 O	1	A561	0.000	
19	  C9	-0.949	20.827	-14.625	C.3	1	A561	0.000	
20	  O9	1.019	18.753	-17.240	O.3	1	A561	0.000	
21	 C10	-0.295	18.493	-14.840	C.3	1	A561	0.000	
22	 O10	4.571	14.253	-14.645	 O	1	A561	0.000	
23	 C11	-1.536	18.246	-15.494	C.3	1	A561	0.000	
24	 C12	-2.403	19.332	-15.704	C.3	1	A561	0.000	
25	 C13	-3.625	19.149	-16.354	C.3	1	A561	0.000	
26	 C14	-1.908	16.961	-15.934	C.3	1	A561	0.000	
27	 C15	-3.164	16.762	-16.559	C.3	1	A561	0.000	
28	 C16	-4.003	17.886	-16.773	C.3	1	A561	0.000	
29	 C17	-3.673	15.443	-16.998	C.3	1	A561	0.000	
30	 C18	-4.887	15.358	-17.564	C.3	1	A561	0.000	
31	 C19	-5.827	16.525	-17.747	C.3	1	A561	0.000	
32	 C20	1.001	24.378	-10.760	C.3	1	A561	0.000	
33	 C21	2.263	25.388	-12.629	C.3	1	A561	0.000	
34	 C22	-6.313	16.630	-19.186	C.3	1	A561	0.000	
35	 C23	-7.029	16.331	-16.825	C.3	1	A561	0.000	
36	 C24	-2.917	14.165	-16.718	C.3	1	A561	0.000	
37	 C25	3.681	20.823	-12.040	C.3	1	A561	0.000	
38	 C26	0.686	17.448	-14.634	C.3	1	A561	0.000	
39	 C27	0.646	16.726	-13.424	C.3	1	A561	0.000	
40	 C28	1.606	15.749	-13.143	C.3	1	A561	0.000	
41	 C29	2.641	15.474	-14.061	C.3	1	A561	0.000	
42	 C30	2.652	16.181	-15.280	C.3	1	A561	0.000	
43	 C31	1.703	17.173	-15.601	C.3	1	A561	0.000	
44	 C32	1.860	17.846	-16.904	C.3	1	A561	0.000	
45	 O91	-2.112	20.606	-15.309	O.3	1	A561	0.000	
46	 O92	2.377	19.053	-10.827	 O	1	A561	0.000	
47	 C99	3.699	14.489	-13.823	C.3	1	A561	0.000	
48	  H1	1.739	24.768	-10.057	 H	1	A561	0.000	
49	  H2	0.195	25.097	-10.864	 H	1	A561	0.000	
50	  H3	0.601	23.449	-10.347	 H	1	A561	0.000	
51	  H4	2.708	25.234	-13.609	 H	1	A561	0.000	
52	  H5	3.049	25.732	-11.956	 H	1	A561	0.000	
53	  H6	1.517	26.180	-12.700	 H	1	A561	0.000	
54	  H7	3.557	23.359	-11.361	 H	1	A561	0.000	
55	  H8	-0.079	24.384	-13.285	 H	1	A561	0.000	
56	  H9	-5.753	18.621	-17.565	 H	1	A561	0.000	
57	 H10	-7.043	17.445	-19.292	 H	1	A561	0.000	
58	 H11	-5.480	16.842	-19.851	 H	1	A561	0.000	
59	 H12	-6.783	15.706	-19.503	 H	1	A561	0.000	
60	 H13	-7.574	15.416	-17.084	 H	1	A561	0.000	
61	 H14	-7.726	17.175	-16.907	 H	1	A561	0.000	
62	 H15	-6.715	16.253	-15.784	 H	1	A561	0.000	
63	 H16	-3.626	13.341	-16.634	 H	1	A561	0.000	
64	 H17	-2.351	14.223	-15.787	 H	1	A561	0.000	
65	 H18	3.806	20.045	-12.789	 H	1	A561	0.000	
66	 H19	4.632	21.351	-11.924	 H	1	A561	0.000	
67	 H21	-1.446	22.893	-14.389	 H	1	A561	0.000	
68	 H22	-4.271	20.012	-16.509	 H	1	A561	0.000	
69	 H23	-1.245	16.107	-15.791	 H	1	A561	0.000	
70	 H24	1.895	19.318	-13.435	 H	1	A561	0.000	
71	 H25	-5.280	14.396	-17.891	 H	1	A561	0.000	
72	 H26	-0.127	16.940	-12.693	 H	1	A561	0.000	
73	 H27	1.537	15.215	-12.198	 H	1	A561	0.000	
74	 H28	3.438	15.967	-16.003	 H	1	A561	0.000	
75	 H32	1.376	18.960	-18.137	 H	1	A561	0.000	
76	  P1	6.493	7.034	-6.104	P.3	2	POS1	1.166	
77	 O3P	5.202	6.281	-6.321	Du	2	POS1	-0.776	
78	 O4P	6.503	8.178	-5.121	Du	2	POS1	-0.776	
79	 O01	6.845	7.605	-7.390	Os	2	POS1	-0.539	
80	 C10	5.870	8.583	-7.761	C.3	2	POS1	0.334	
81	 C11	6.236	9.179	-9.134	C.3	2	POS1	-0.048	
82	 C12	5.203	10.279	-9.496	C.3	2	POS1	0.035	
83	 C13	5.536	10.986	-10.825	C.3	2	POS1	0.008	
84	 C14	4.450	12.041	-11.140	C.3	2	POS1	0.020	
85	 C15	4.774	12.837	-12.421	C.3	2	POS1	0.114	
86	 N99	3.724	13.828	-12.691	N.3	2	POS1	-0.495	
87	 H11	3.010	14.005	-12.000	 H	2	POS1	0.252	
88	 H12	4.864	12.149	-13.265	 H	2	POS1	0.034	
89	 H13	5.737	13.353	-12.296	 H	2	POS1	0.034	
90	 H14	3.487	11.538	-11.264	 H	2	POS1	0.004	
91	 H15	4.359	12.737	-10.303	 H	2	POS1	0.004	
92	 H16	5.591	10.268	-11.637	 H	2	POS1	-0.004	
93	 H17	6.510	11.481	-10.748	 H	2	POS1	-0.004	
94	 H18	4.213	9.835	-9.557	 H	2	POS1	-0.029	
95	 H19	5.176	11.025	-8.701	 H	2	POS1	-0.029	
96	 H23	7.208	9.652	-8.997	 H	2	POS1	0.022	
97	 H24	6.248	8.421	-9.918	 H	2	POS1	0.022	
98	 H25	5.849	9.377	-7.015	 H	2	POS1	-0.021	
99	 H26	4.888	8.114	-7.819	 H	2	POS1	-0.021	
100	   P	3.063	8.025	-4.135	 P	3	RC2	1.166	
101	 O1P	3.223	8.856	-5.350	O.2	3	RC2	-0.776	
102	 O2P	1.891	7.121	-4.118	 O	3	RC2	-0.776	
103	 C5'	5.621	7.881	-3.587	C.3	3	RC2	0.056	
104	 O5'	4.397	7.181	-3.881	O.3	3	RC2	-0.499	
105	 C4'	6.718	6.889	-3.258	C.3	3	RC2	0.106	
106	 O4'	6.486	6.363	-1.919	O.3	3	RC2	-0.355	
107	 C3'	6.776	5.641	-4.140	C.3	3	RC2	0.202	
108	 O3'	7.398	5.908	-5.390	O.3	3	RC2	-0.525	
109	 C2'	7.566	4.726	-3.208	C.3	3	RC2	0.067	
110	 O2'	8.949	5.085	-3.166	O.3	3	RC2	-0.614	
111	 C1'	6.874	5.000	-1.877	C.3	3	RC2	0.007	
112	  N1	5.666	4.158	-1.647	N.pl3	3	RC2	-0.048	
113	  C2	5.853	2.891	-1.100	C.2	3	RC2	0.754	
114	  O2	7.001	2.521	-0.831	O.2	3	RC2	-0.625	
115	  N3	4.764	2.108	-0.883	N.2	3	RC2	-0.758	
116	  C4	3.536	2.547	-1.188	C.2	3	RC2	0.818	
117	  N4	2.508	1.746	-0.956	N.pl3	3	RC2	-0.953	
118	  C5	3.323	3.847	-1.751	C.2	3	RC2	-0.521	
119	  C6	4.423	4.613	-1.961	C.2	3	RC2	0.005	
120	HO'2	9.266	5.035	-2.261	 H	3	RC2	0.419	
121	  H5	2.324	4.204	-1.999	 H	3	RC2	0.193	
122	  H6	4.309	5.609	-2.388	 H	3	RC2	0.196	
123	 H1'	7.560	4.764	-1.063	 H	3	RC2	0.203	
124	 H3'	5.823	5.221	-4.460	 H	3	RC2	0.062	
125	 H4'	7.638	7.457	-3.394	 H	3	RC2	0.117	
126	 H41	1.571	2.051	-1.176	 H	3	RC2	0.423	
127	 H42	2.661	0.830	-0.559	 H	3	RC2	0.423	
128	H2'1	7.570	3.677	-3.505	 H	3	RC2	0.097	
129	H5'1	5.462	8.536	-2.730	 H	3	RC2	0.068	
130	H5'2	5.916	8.473	-4.453	 H	3	RC2	0.068	
@<TRIPOS>BOND
1 1 2 1
2 1 4 1
3 1 32 1
4 1 33 1
5 2 11 1
6 2 55 1
7 3 12 1
8 3 14 1
9 3 16 1
10 3 36 1
11 4 7 1
12 4 54 1
13 5 28 1
14 5 31 1
15 5 56 1
16 6 8 1
17 6 10 1
18 6 37 1
19 6 46 1
20 7 9 1
21 7 37 1
22 9 11 1
23 9 15 1
24 11 13 1
25 13 19 1
26 13 67 1
27 15 17 1
28 15 70 1
29 17 19 1
30 17 21 1
31 18 44 1
32 19 45 1
33 20 44 1
34 20 75 1
35 21 23 1
36 21 38 1
37 22 47 1
38 23 24 1
39 23 26 1
40 24 25 1
41 24 45 1
42 25 28 1
43 25 68 1
44 26 27 1
45 26 69 1
46 27 28 1
47 27 29 1
48 29 30 1
49 29 36 1
50 30 31 1
51 30 71 1
52 31 34 1
53 31 35 1
54 32 48 1
55 32 49 1
56 32 50 1
57 33 51 1
58 33 52 1
59 33 53 1
60 34 57 1
61 34 58 1
62 34 59 1
63 35 60 1
64 35 61 1
65 35 62 1
66 36 63 1
67 36 64 1
68 37 65 1
69 37 66 1
70 38 39 1
71 38 43 1
72 39 40 1
73 39 72 1
74 40 41 1
75 40 73 1
76 41 42 1
77 41 47 1
78 42 43 1
79 42 74 1
80 43 44 1
81 76 77 1
82 76 78 1
83 76 79 1
84 76 108 1
85 79 80 1
86 80 81 1
87 80 98 1
88 80 99 1
89 81 82 1
90 81 96 1
91 81 97 1
92 82 83 1
93 82 94 1
94 82 95 1
95 83 84 1
96 83 92 1
97 83 93 1
98 84 85 1
99 84 90 1
100 84 91 1
101 85 86 1
102 85 88 1
103 85 89 1
104 86 87 1
105 100 101 2
106 100 102 1
107 100 104 1
108 103 104 1
109 103 105 1
110 103 129 1
111 103 130 1
112 105 106 1
113 105 107 1
114 105 125 1
115 106 111 1
116 107 108 1
117 107 109 1
118 107 124 1
119 109 110 1
120 109 111 1
121 109 128 1
122 110 120 1
123 111 112 1
124 111 123 1
125 112 113 1
126 112 119 1
127 113 114 2
128 113 115 1
129 115 116 2
130 116 117 1
131 116 118 1
132 117 126 1
133 117 127 1
134 118 119 2
135 118 121 1
136 119 122 1
137 47 86 1
@<TRIPOS>SUBSTRUCTURE
1	A561	1	GROUP	1 ****	A56
2	POS1	76	GROUP	1 ****	POS
3	RC2	100	GROUP	1 ****	RC
