# created with PyMOL 2.3.3
@<TRIPOS>MOLECULE
A59_L1R
136 143 3               
SMALL
USER_CHARGES
@<TRIPOS>ATOM
1	  C1	1.695	24.475	-13.665	C.3	1	A591	0.000	
2	  N1	0.398	23.888	-14.088	N.3	1	A591	0.000	
3	  S1	3.974	20.847	-11.657	S.3	1	A591	0.000	
4	  C2	2.769	23.438	-13.468	C.3	1	A591	0.000	
5	  N2	-5.552	16.888	-16.673	N.3	1	A591	0.000	
6	  S2	-2.010	13.062	-17.499	S.3	1	A591	0.000	
7	  C3	2.591	22.127	-13.604	C.3	1	A591	0.000	
8	  O3	0.708	18.585	-17.251	O.3	1	A591	0.000	
9	  C4	1.262	21.602	-14.007	C.3	1	A591	0.000	
10	  O4	4.575	14.249	-14.642	 O	1	A591	0.000	
11	  C5	0.221	22.517	-14.245	C.3	1	A591	0.000	
12	  O5	2.733	20.297	-11.228	 O	1	A591	0.000	
13	  C6	-1.036	22.021	-14.665	C.3	1	A591	0.000	
14	  O6	4.324	22.113	-11.090	 O	1	A591	0.000	
15	  C7	1.044	20.222	-14.166	C.3	1	A591	0.000	
16	  O7	5.103	19.972	-11.642	 O	1	A591	0.000	
17	  C8	-0.210	19.749	-14.595	C.3	1	A591	0.000	
18	  O8	-1.501	14.182	-18.225	 O	1	A591	0.000	
19	  C9	-1.241	20.656	-14.846	C.3	1	A591	0.000	
20	  O9	-3.128	12.398	-18.108	 O	1	A591	0.000	
21	 C10	-0.453	18.367	-14.820	C.3	1	A591	0.000	
22	 O10	-1.047	12.139	-17.006	 O	1	A591	0.000	
23	 C11	-1.715	17.959	-15.308	C.3	1	A591	0.000	
24	 C12	-2.690	18.928	-15.519	C.3	1	A591	0.000	
25	 C13	-3.957	18.557	-15.984	C.3	1	A591	0.000	
26	 C14	-2.012	16.597	-15.561	C.3	1	A591	0.000	
27	 C15	-3.298	16.222	-16.022	C.3	1	A591	0.000	
28	 C16	-4.278	17.211	-16.231	C.3	1	A591	0.000	
29	 C17	-3.642	14.808	-16.265	C.3	1	A591	0.000	
30	 C18	-4.877	14.504	-16.695	C.3	1	A591	0.000	
31	 C19	-5.945	15.491	-17.018	C.3	1	A591	0.000	
32	 C20	0.617	17.391	-14.620	C.3	1	A591	0.000	
33	 C21	0.663	16.744	-13.374	C.3	1	A591	0.000	
34	 C22	1.659	15.795	-13.095	C.3	1	A591	0.000	
35	 C23	2.634	15.478	-14.058	C.3	1	A591	0.000	
36	 C24	2.580	16.145	-15.313	C.3	1	A591	0.000	
37	 C25	1.587	17.097	-15.623	C.3	1	A591	0.000	
38	 C26	1.627	17.741	-16.961	C.3	1	A591	0.000	
39	 C27	-6.584	17.935	-16.859	C.3	1	A591	0.000	
40	 C28	-6.213	15.383	-18.519	C.3	1	A591	0.000	
41	 C29	-7.187	15.056	-16.227	C.3	1	A591	0.000	
42	 C30	1.533	25.204	-12.326	C.3	1	A591	0.000	
43	 C31	2.206	25.448	-14.735	C.3	1	A591	0.000	
44	 C32	-0.723	24.833	-14.317	C.3	1	A591	0.000	
45	 C34	3.773	21.214	-13.346	C.3	1	A591	0.000	
46	 C35	-2.685	13.688	-16.022	C.3	1	A591	0.000	
47	 O91	-2.464	20.253	-15.292	O.3	1	A591	0.000	
48	 O92	2.480	17.550	-17.801	 O	1	A591	0.000	
49	 C99	3.703	14.489	-13.828	C.3	1	A591	0.000	
50	  H1	-7.413	14.006	-16.417	 H	1	A591	0.000	
51	  H2	-8.071	15.628	-16.490	 H	1	A591	0.000	
52	  H3	-7.011	15.177	-15.166	 H	1	A591	0.000	
53	  H4	-5.330	15.683	-19.086	 H	1	A591	0.000	
54	  H5	-6.464	14.355	-18.795	 H	1	A591	0.000	
55	  H6	-7.040	16.024	-18.825	 H	1	A591	0.000	
56	  H7	1.155	24.505	-11.568	 H	1	A591	0.000	
57	  H8	2.495	25.584	-11.985	 H	1	A591	0.000	
58	  H9	0.846	26.045	-12.391	 H	1	A591	0.000	
59	 H10	1.543	26.300	-14.867	 H	1	A591	0.000	
60	 H11	2.311	24.942	-15.696	 H	1	A591	0.000	
61	 H12	3.195	25.838	-14.451	 H	1	A591	0.000	
62	 H13	-1.069	24.773	-15.358	 H	1	A591	0.000	
63	 H14	-1.558	24.599	-13.647	 H	1	A591	0.000	
64	 H15	-0.445	25.876	-14.140	 H	1	A591	0.000	
65	 H16	-6.768	18.453	-15.910	 H	1	A591	0.000	
66	 H17	-7.527	17.542	-17.225	 H	1	A591	0.000	
67	 H18	-6.230	18.667	-17.590	 H	1	A591	0.000	
68	 H19	3.698	20.269	-13.876	 H	1	A591	0.000	
69	 H20	4.686	21.697	-13.669	 H	1	A591	0.000	
70	 H21	-3.197	12.855	-15.545	 H	1	A591	0.000	
71	 H22	-1.841	13.963	-15.390	 H	1	A591	0.000	
72	 H24	-1.866	22.675	-14.877	 H	1	A591	0.000	
73	 H25	-4.670	19.347	-16.128	 H	1	A591	0.000	
74	 H26	1.836	19.508	-13.957	 H	1	A591	0.000	
75	 H27	3.729	23.830	-13.167	 H	1	A591	0.000	
76	 H28	-0.081	16.978	-12.610	 H	1	A591	0.000	
77	 H29	1.643	15.310	-12.128	 H	1	A591	0.000	
78	 H30	3.339	15.913	-16.059	 H	1	A591	0.000	
79	 H31	-1.236	15.854	-15.410	 H	1	A591	0.000	
80	 H32	-5.133	13.457	-16.877	 H	1	A591	0.000	
81	 H36	0.980	18.910	-18.158	 H	1	A591	0.000	
82	  P1	6.493	7.034	-6.104	P.3	2	POS1	1.166	
83	 O3P	5.202	6.281	-6.321	Du	2	POS1	-0.776	
84	 O4P	6.503	8.178	-5.121	Du	2	POS1	-0.776	
85	 O01	6.845	7.605	-7.390	Os	2	POS1	-0.539	
86	 C10	5.870	8.583	-7.761	C.3	2	POS1	0.334	
87	 C11	6.236	9.179	-9.134	C.3	2	POS1	-0.048	
88	 C12	5.203	10.279	-9.496	C.3	2	POS1	0.035	
89	 C13	5.536	10.986	-10.825	C.3	2	POS1	0.008	
90	 C14	4.450	12.041	-11.140	C.3	2	POS1	0.020	
91	 C15	4.774	12.837	-12.421	C.3	2	POS1	0.114	
92	 N99	3.724	13.828	-12.691	N.3	2	POS1	-0.495	
93	 H11	3.010	14.005	-12.000	 H	2	POS1	0.252	
94	 H12	4.864	12.149	-13.265	 H	2	POS1	0.034	
95	 H13	5.737	13.353	-12.296	 H	2	POS1	0.034	
96	 H14	3.487	11.538	-11.264	 H	2	POS1	0.004	
97	 H15	4.359	12.737	-10.303	 H	2	POS1	0.004	
98	 H16	5.591	10.268	-11.637	 H	2	POS1	-0.004	
99	 H17	6.510	11.481	-10.748	 H	2	POS1	-0.004	
100	 H18	4.213	9.835	-9.557	 H	2	POS1	-0.029	
101	 H19	5.176	11.025	-8.701	 H	2	POS1	-0.029	
102	 H23	7.208	9.652	-8.997	 H	2	POS1	0.022	
103	 H24	6.248	8.421	-9.918	 H	2	POS1	0.022	
104	 H25	5.849	9.377	-7.015	 H	2	POS1	-0.021	
105	 H26	4.888	8.114	-7.819	 H	2	POS1	-0.021	
106	   P	3.063	8.025	-4.135	 P	3	RC2	1.166	
107	 O1P	3.223	8.856	-5.350	O.2	3	RC2	-0.776	
108	 O2P	1.891	7.121	-4.118	 O	3	RC2	-0.776	
109	 C5'	5.621	7.881	-3.587	C.3	3	RC2	0.056	
110	 O5'	4.397	7.181	-3.881	O.3	3	RC2	-0.499	
111	 C4'	6.718	6.889	-3.258	C.3	3	RC2	0.106	
112	 O4'	6.486	6.363	-1.919	O.3	3	RC2	-0.355	
113	 C3'	6.776	5.641	-4.140	C.3	3	RC2	0.202	
114	 O3'	7.398	5.908	-5.390	O.3	3	RC2	-0.525	
115	 C2'	7.566	4.726	-3.208	C.3	3	RC2	0.067	
116	 O2'	8.949	5.085	-3.166	O.3	3	RC2	-0.614	
117	 C1'	6.874	5.000	-1.877	C.3	3	RC2	0.007	
118	  N1	5.666	4.158	-1.647	N.pl3	3	RC2	-0.048	
119	  C2	5.853	2.891	-1.100	C.2	3	RC2	0.754	
120	  O2	7.001	2.521	-0.831	O.2	3	RC2	-0.625	
121	  N3	4.764	2.108	-0.883	N.2	3	RC2	-0.758	
122	  C4	3.536	2.547	-1.188	C.2	3	RC2	0.818	
123	  N4	2.508	1.746	-0.956	N.pl3	3	RC2	-0.953	
124	  C5	3.323	3.847	-1.751	C.2	3	RC2	-0.521	
125	  C6	4.423	4.613	-1.961	C.2	3	RC2	0.005	
126	HO'2	9.266	5.035	-2.261	 H	3	RC2	0.419	
127	  H5	2.324	4.204	-1.999	 H	3	RC2	0.193	
128	  H6	4.309	5.609	-2.388	 H	3	RC2	0.196	
129	 H1'	7.560	4.764	-1.063	 H	3	RC2	0.203	
130	 H3'	5.823	5.221	-4.460	 H	3	RC2	0.062	
131	 H4'	7.638	7.457	-3.394	 H	3	RC2	0.117	
132	 H41	1.571	2.051	-1.176	 H	3	RC2	0.423	
133	 H42	2.661	0.830	-0.559	 H	3	RC2	0.423	
134	H2'1	7.570	3.677	-3.505	 H	3	RC2	0.097	
135	H5'1	5.462	8.536	-2.730	 H	3	RC2	0.068	
136	H5'2	5.916	8.473	-4.453	 H	3	RC2	0.068	
@<TRIPOS>BOND
1 1 2 1
2 1 4 1
3 1 42 1
4 1 43 1
5 2 11 1
6 2 44 1
7 3 12 1
8 3 14 1
9 3 16 1
10 3 45 1
11 4 7 1
12 4 75 1
13 5 28 1
14 5 31 1
15 5 39 1
16 6 18 1
17 6 20 1
18 6 22 1
19 6 46 1
20 7 9 1
21 7 45 1
22 8 38 1
23 8 81 1
24 9 11 1
25 9 15 1
26 10 49 1
27 11 13 1
28 13 19 1
29 13 72 1
30 15 17 1
31 15 74 1
32 17 19 1
33 17 21 1
34 19 47 1
35 21 23 1
36 21 32 1
37 23 24 1
38 23 26 1
39 24 25 1
40 24 47 1
41 25 28 1
42 25 73 1
43 26 27 1
44 26 79 1
45 27 28 1
46 27 29 1
47 29 30 1
48 29 46 1
49 30 31 1
50 30 80 1
51 31 40 1
52 31 41 1
53 32 33 1
54 32 37 1
55 33 34 1
56 33 76 1
57 34 35 1
58 34 77 1
59 35 36 1
60 35 49 1
61 36 37 1
62 36 78 1
63 37 38 1
64 38 48 1
65 39 65 1
66 39 66 1
67 39 67 1
68 40 53 1
69 40 54 1
70 40 55 1
71 41 50 1
72 41 51 1
73 41 52 1
74 42 56 1
75 42 57 1
76 42 58 1
77 43 59 1
78 43 60 1
79 43 61 1
80 44 62 1
81 44 63 1
82 44 64 1
83 45 68 1
84 45 69 1
85 46 70 1
86 46 71 1
87 82 83 1
88 82 84 1
89 82 85 1
90 82 114 1
91 85 86 1
92 86 87 1
93 86 104 1
94 86 105 1
95 87 88 1
96 87 102 1
97 87 103 1
98 88 89 1
99 88 100 1
100 88 101 1
101 89 90 1
102 89 98 1
103 89 99 1
104 90 91 1
105 90 96 1
106 90 97 1
107 91 92 1
108 91 94 1
109 91 95 1
110 92 93 1
111 106 107 2
112 106 108 1
113 106 110 1
114 109 110 1
115 109 111 1
116 109 135 1
117 109 136 1
118 111 112 1
119 111 113 1
120 111 131 1
121 112 117 1
122 113 114 1
123 113 115 1
124 113 130 1
125 115 116 1
126 115 117 1
127 115 134 1
128 116 126 1
129 117 118 1
130 117 129 1
131 118 119 1
132 118 125 1
133 119 120 2
134 119 121 1
135 121 122 2
136 122 123 1
137 122 124 1
138 123 132 1
139 123 133 1
140 124 125 2
141 124 127 1
142 125 128 1
143 49 92 1
@<TRIPOS>SUBSTRUCTURE
1	A591	1	GROUP	1 ****	A59
2	POS1	82	GROUP	1 ****	POS
3	RC2	106	GROUP	1 ****	RC
