# created with PyMOL 2.3.3
@<TRIPOS>MOLECULE
A64_L1R
149 154 3               
SMALL
USER_CHARGES
@<TRIPOS>ATOM
1	  C1	-1.690	15.342	-15.826	C.3	1	A641	0.000	
2	  N1	1.023	17.452	-18.127	N.3	1	A641	0.000	
3	  S1	2.277	16.791	-24.507	S.3	1	A641	0.000	
4	  C2	-1.987	15.468	-17.199	C.3	1	A641	0.000	
5	  N2	9.352	22.352	-15.933	N.3	1	A641	0.000	
6	  S2	8.849	27.821	-19.405	S.3	1	A641	0.000	
7	  C3	-1.122	16.168	-18.053	C.3	1	A641	0.000	
8	  O3	8.005	28.964	-19.244	 O	1	A641	0.000	
9	  S3	-2.786	14.476	-14.741	S.3	1	A641	0.000	
10	  C4	0.056	16.717	-17.515	C.3	1	A641	0.000	
11	  O4	10.238	28.087	-19.251	 O	1	A641	0.000	
12	  S4	13.225	21.979	-11.470	S.3	1	A641	0.000	
13	  C5	0.362	16.572	-16.165	C.3	1	A641	0.000	
14	  O5	3.434	17.585	-24.229	 O	1	A641	0.000	
15	  C6	-0.511	15.893	-15.302	C.3	1	A641	0.000	
16	  O6	8.550	27.075	-20.586	 O	1	A641	0.000	
17	  C7	1.683	17.230	-15.830	C.3	1	A641	0.000	
18	  O7	4.581	14.248	-14.649	 O	1	A641	0.000	
19	  C8	2.769	16.169	-15.452	C.3	1	A641	0.000	
20	  O8	-4.116	14.490	-15.269	 O	1	A641	0.000	
21	  C9	3.157	18.703	-17.501	C.3	1	A641	0.000	
22	  O9	-2.344	13.154	-15.089	 O	1	A641	0.000	
23	 C10	4.129	19.085	-16.654	C.3	1	A641	0.000	
24	 O10	13.134	23.254	-10.793	 O	1	A641	0.000	
25	 C11	7.300	21.193	-16.391	C.3	1	A641	0.000	
26	 O11	12.871	20.827	-10.696	 O	1	A641	0.000	
27	 C12	12.079	22.182	-12.811	C.3	1	A641	0.000	
28	 O12	-2.479	14.742	-13.361	 O	1	A641	0.000	
29	 C13	12.361	23.078	-13.864	C.3	1	A641	0.000	
30	 O13	14.546	22.200	-11.999	 O	1	A641	0.000	
31	 C14	11.486	23.204	-14.952	C.3	1	A641	0.000	
32	 C15	10.317	22.427	-14.981	C.3	1	A641	0.000	
33	 C16	10.019	21.556	-13.948	C.3	1	A641	0.000	
34	 C17	10.892	21.414	-12.847	C.3	1	A641	0.000	
35	 C18	8.354	21.471	-15.589	C.3	1	A641	0.000	
36	 C19	8.691	20.870	-14.207	C.3	1	A641	0.000	
37	 C20	8.861	19.330	-14.238	C.3	1	A641	0.000	
38	 C21	0.926	17.824	-19.548	C.3	1	A641	0.000	
39	 C22	9.470	23.124	-17.176	C.3	1	A641	0.000	
40	 C23	8.844	24.527	-16.983	C.3	1	A641	0.000	
41	 C24	9.123	25.402	-18.216	C.3	1	A641	0.000	
42	 C25	8.434	26.765	-18.065	C.3	1	A641	0.000	
43	 C26	1.458	18.307	-14.742	C.3	1	A641	0.000	
44	 C27	2.002	17.835	-17.216	C.3	1	A641	0.000	
45	 C28	7.688	21.270	-13.102	C.3	1	A641	0.000	
46	 C29	5.227	19.975	-16.969	C.3	1	A641	0.000	
47	 C30	6.201	20.278	-16.106	C.3	1	A641	0.000	
48	 C31	1.389	16.697	-20.483	C.3	1	A641	0.000	
49	 C32	1.544	17.244	-21.918	C.3	1	A641	0.000	
50	 C33	1.881	16.121	-22.932	C.3	1	A641	0.000	
51	 C34	2.623	15.489	-14.061	C.3	1	A641	0.000	
52	 O91	2.620	15.649	-25.294	 O	1	A641	0.000	
53	 O92	1.106	17.501	-24.937	 O	1	A641	0.000	
54	 C99	3.708	14.480	-13.819	C.3	1	A641	0.000	
55	  H1	-2.909	15.030	-17.592	 H	1	A641	0.000	
56	  H2	-1.366	16.277	-19.112	 H	1	A641	0.000	
57	  H3	-0.285	15.800	-14.244	 H	1	A641	0.000	
58	  H4	2.767	15.389	-16.219	 H	1	A641	0.000	
59	  H5	3.746	16.623	-15.508	 H	1	A641	0.000	
60	  H6	3.220	19.084	-18.513	 H	1	A641	0.000	
61	  H7	4.118	18.727	-15.636	 H	1	A641	0.000	
62	  H8	7.203	21.694	-17.355	 H	1	A641	0.000	
63	  H9	13.269	23.674	-13.829	 H	1	A641	0.000	
64	 H10	11.732	23.892	-15.760	 H	1	A641	0.000	
65	 H11	10.655	20.732	-12.030	 H	1	A641	0.000	
66	 H12	9.402	18.990	-13.350	 H	1	A641	0.000	
67	 H13	9.440	19.034	-15.113	 H	1	A641	0.000	
68	 H14	7.911	18.815	-14.263	 H	1	A641	0.000	
69	 H15	1.552	18.702	-19.729	 H	1	A641	0.000	
70	 H16	-0.099	18.105	-19.788	 H	1	A641	0.000	
71	 H17	10.523	23.231	-17.452	 H	1	A641	0.000	
72	 H18	8.986	22.612	-18.010	 H	1	A641	0.000	
73	 H19	9.260	24.999	-16.099	 H	1	A641	0.000	
74	 H20	7.767	24.425	-16.829	 H	1	A641	0.000	
75	 H21	10.201	25.543	-18.325	 H	1	A641	0.000	
76	 H22	8.764	24.897	-19.113	 H	1	A641	0.000	
77	 H23	8.752	27.274	-17.156	 H	1	A641	0.000	
78	 H24	7.346	26.663	-18.068	 H	1	A641	0.000	
79	 H25	1.012	17.875	-13.842	 H	1	A641	0.000	
80	 H26	2.380	18.789	-14.452	 H	1	A641	0.000	
81	 H27	0.774	19.077	-15.111	 H	1	A641	0.000	
82	 H28	8.043	20.934	-12.117	 H	1	A641	0.000	
83	 H29	7.569	22.355	-13.065	 H	1	A641	0.000	
84	 H30	6.703	20.834	-13.258	 H	1	A641	0.000	
85	 H31	5.236	20.411	-17.973	 H	1	A641	0.000	
86	 H32	6.160	19.818	-15.120	 H	1	A641	0.000	
87	 H33	2.356	16.300	-20.141	 H	1	A641	0.000	
88	 H34	0.667	15.878	-20.466	 H	1	A641	0.000	
89	 H35	0.626	17.741	-22.229	 H	1	A641	0.000	
90	 H36	2.339	17.998	-21.921	 H	1	A641	0.000	
91	 H37	2.750	15.551	-22.608	 H	1	A641	0.000	
92	 H38	1.032	15.456	-23.068	 H	1	A641	0.000	
93	 H39	1.661	15.000	-13.966	 H	1	A641	0.000	
94	 H40	2.708	16.217	-13.248	 H	1	A641	0.000	
95	  P1	6.493	7.034	-6.104	P.3	2	POS1	1.166	
96	 O3P	5.202	6.281	-6.321	Du	2	POS1	-0.776	
97	 O4P	6.503	8.178	-5.121	Du	2	POS1	-0.776	
98	 O01	6.845	7.605	-7.390	Os	2	POS1	-0.539	
99	 C10	5.870	8.583	-7.761	C.3	2	POS1	0.334	
100	 C11	6.236	9.179	-9.134	C.3	2	POS1	-0.048	
101	 C12	5.203	10.279	-9.496	C.3	2	POS1	0.035	
102	 C13	5.536	10.986	-10.825	C.3	2	POS1	0.008	
103	 C14	4.450	12.041	-11.140	C.3	2	POS1	0.020	
104	 C15	4.774	12.837	-12.421	C.3	2	POS1	0.114	
105	 N99	3.724	13.828	-12.691	N.3	2	POS1	-0.495	
106	 H11	3.010	14.005	-12.000	 H	2	POS1	0.252	
107	 H12	4.864	12.149	-13.265	 H	2	POS1	0.034	
108	 H13	5.737	13.353	-12.296	 H	2	POS1	0.034	
109	 H14	3.487	11.538	-11.264	 H	2	POS1	0.004	
110	 H15	4.359	12.737	-10.303	 H	2	POS1	0.004	
111	 H16	5.591	10.268	-11.637	 H	2	POS1	-0.004	
112	 H17	6.510	11.481	-10.748	 H	2	POS1	-0.004	
113	 H18	4.213	9.835	-9.557	 H	2	POS1	-0.029	
114	 H19	5.176	11.025	-8.701	 H	2	POS1	-0.029	
115	 H23	7.208	9.652	-8.997	 H	2	POS1	0.022	
116	 H24	6.248	8.421	-9.918	 H	2	POS1	0.022	
117	 H25	5.849	9.377	-7.015	 H	2	POS1	-0.021	
118	 H26	4.888	8.114	-7.819	 H	2	POS1	-0.021	
119	   P	3.063	8.025	-4.135	 P	3	RC2	1.166	
120	 O1P	3.223	8.856	-5.350	O.2	3	RC2	-0.776	
121	 O2P	1.891	7.121	-4.118	 O	3	RC2	-0.776	
122	 C5'	5.621	7.881	-3.587	C.3	3	RC2	0.056	
123	 O5'	4.397	7.181	-3.881	O.3	3	RC2	-0.499	
124	 C4'	6.718	6.889	-3.258	C.3	3	RC2	0.106	
125	 O4'	6.486	6.363	-1.919	O.3	3	RC2	-0.355	
126	 C3'	6.776	5.641	-4.140	C.3	3	RC2	0.202	
127	 O3'	7.398	5.908	-5.390	O.3	3	RC2	-0.525	
128	 C2'	7.566	4.726	-3.208	C.3	3	RC2	0.067	
129	 O2'	8.949	5.085	-3.166	O.3	3	RC2	-0.614	
130	 C1'	6.874	5.000	-1.877	C.3	3	RC2	0.007	
131	  N1	5.666	4.158	-1.647	N.pl3	3	RC2	-0.048	
132	  C2	5.853	2.891	-1.100	C.2	3	RC2	0.754	
133	  O2	7.001	2.521	-0.831	O.2	3	RC2	-0.625	
134	  N3	4.764	2.108	-0.883	N.2	3	RC2	-0.758	
135	  C4	3.536	2.547	-1.188	C.2	3	RC2	0.818	
136	  N4	2.508	1.746	-0.956	N.pl3	3	RC2	-0.953	
137	  C5	3.323	3.847	-1.751	C.2	3	RC2	-0.521	
138	  C6	4.423	4.613	-1.961	C.2	3	RC2	0.005	
139	HO'2	9.266	5.035	-2.261	 H	3	RC2	0.419	
140	  H5	2.324	4.204	-1.999	 H	3	RC2	0.193	
141	  H6	4.309	5.609	-2.388	 H	3	RC2	0.196	
142	 H1'	7.560	4.764	-1.063	 H	3	RC2	0.203	
143	 H3'	5.823	5.221	-4.460	 H	3	RC2	0.062	
144	 H4'	7.638	7.457	-3.394	 H	3	RC2	0.117	
145	 H41	1.571	2.051	-1.176	 H	3	RC2	0.423	
146	 H42	2.661	0.830	-0.559	 H	3	RC2	0.423	
147	H2'1	7.570	3.677	-3.505	 H	3	RC2	0.097	
148	H5'1	5.462	8.536	-2.730	 H	3	RC2	0.068	
149	H5'2	5.916	8.473	-4.453	 H	3	RC2	0.068	
@<TRIPOS>BOND
1 1 4 1
2 1 9 1
3 1 15 1
4 2 10 1
5 2 38 1
6 2 44 1
7 3 14 1
8 3 50 1
9 3 52 1
10 3 53 1
11 4 7 1
12 4 55 1
13 5 32 1
14 5 35 1
15 5 39 1
16 6 8 1
17 6 11 1
18 6 16 1
19 6 42 1
20 7 10 1
21 7 56 1
22 9 20 1
23 9 22 1
24 9 28 1
25 10 13 1
26 12 24 1
27 12 26 1
28 12 27 1
29 12 30 1
30 13 15 1
31 13 17 1
32 15 57 1
33 17 19 1
34 17 43 1
35 17 44 1
36 18 54 1
37 19 51 1
38 19 58 1
39 19 59 1
40 21 23 1
41 21 44 1
42 21 60 1
43 23 46 1
44 23 61 1
45 25 35 1
46 25 47 1
47 25 62 1
48 27 29 1
49 27 34 1
50 29 31 1
51 29 63 1
52 31 32 1
53 31 64 1
54 32 33 1
55 33 34 1
56 33 36 1
57 34 65 1
58 35 36 1
59 36 37 1
60 36 45 1
61 37 66 1
62 37 67 1
63 37 68 1
64 38 48 1
65 38 69 1
66 38 70 1
67 39 40 1
68 39 71 1
69 39 72 1
70 40 41 1
71 40 73 1
72 40 74 1
73 41 42 1
74 41 75 1
75 41 76 1
76 42 77 1
77 42 78 1
78 43 79 1
79 43 80 1
80 43 81 1
81 45 82 1
82 45 83 1
83 45 84 1
84 46 47 1
85 46 85 1
86 47 86 1
87 48 49 1
88 48 87 1
89 48 88 1
90 49 50 1
91 49 89 1
92 49 90 1
93 50 91 1
94 50 92 1
95 51 54 1
96 51 93 1
97 51 94 1
98 95 96 1
99 95 97 1
100 95 98 1
101 95 127 1
102 98 99 1
103 99 100 1
104 99 117 1
105 99 118 1
106 100 101 1
107 100 115 1
108 100 116 1
109 101 102 1
110 101 113 1
111 101 114 1
112 102 103 1
113 102 111 1
114 102 112 1
115 103 104 1
116 103 109 1
117 103 110 1
118 104 105 1
119 104 107 1
120 104 108 1
121 105 106 1
122 119 120 2
123 119 121 1
124 119 123 1
125 122 123 1
126 122 124 1
127 122 148 1
128 122 149 1
129 124 125 1
130 124 126 1
131 124 144 1
132 125 130 1
133 126 127 1
134 126 128 1
135 126 143 1
136 128 129 1
137 128 130 1
138 128 147 1
139 129 139 1
140 130 131 1
141 130 142 1
142 131 132 1
143 131 138 1
144 132 133 2
145 132 134 1
146 134 135 2
147 135 136 1
148 135 137 1
149 136 145 1
150 136 146 1
151 137 138 2
152 137 140 1
153 138 141 1
154 54 105 1
@<TRIPOS>SUBSTRUCTURE
1	A641	1	GROUP	1 ****	A64
2	POS1	95	GROUP	1 ****	POS
3	RC2	119	GROUP	1 ****	RC
