# created with PyMOL 2.3.3
@<TRIPOS>MOLECULE
C3W
130 135 3               
SMALL
USER_CHARGES
@<TRIPOS>ATOM
1	  C1	4.897	28.452	-19.772	C.3	1	C3W1	0.000	
2	  N1	4.651	24.738	-17.911	N.3	1	C3W1	0.000	
3	  S1	4.866	30.054	-20.555	S.3	1	C3W1	0.000	
4	  C2	5.790	28.198	-18.702	C.3	1	C3W1	0.000	
5	  N2	-0.001	19.035	-18.605	N.3	1	C3W1	0.000	
6	  S2	-3.548	17.137	-22.933	S.3	1	C3W1	0.000	
7	  C3	5.797	26.970	-18.021	C.3	1	C3W1	0.000	
8	  O3	3.464	30.318	-20.692	 O	1	C3W1	0.000	
9	  C4	4.877	25.984	-18.417	C.3	1	C3W1	0.000	
10	  O4	-4.222	15.930	-22.540	 O	1	C3W1	0.000	
11	  C5	4.008	26.210	-19.485	C.3	1	C3W1	0.000	
12	  O5	-4.266	18.360	-23.129	 O	1	C3W1	0.000	
13	  C6	4.010	27.435	-20.167	C.3	1	C3W1	0.000	
14	  O6	-2.719	17.194	-24.107	 O	1	C3W1	0.000	
15	  C7	3.627	24.109	-18.605	C.3	1	C3W1	0.000	
16	  O7	5.775	30.952	-19.904	 O	1	C3W1	0.000	
17	  C8	3.113	25.004	-19.731	C.3	1	C3W1	0.000	
18	  C9	3.374	24.424	-21.147	C.3	1	C3W1	0.000	
19	 C10	3.074	22.788	-18.265	C.3	1	C3W1	0.000	
20	 C11	2.113	22.137	-18.910	C.3	1	C3W1	0.000	
21	 C12	1.508	20.891	-18.456	C.3	1	C3W1	0.000	
22	 C13	-2.466	17.617	-21.619	C.3	1	C3W1	0.000	
23	 C14	-2.373	16.840	-20.441	C.3	1	C3W1	0.000	
24	 C15	-1.559	17.237	-19.371	C.3	1	C3W1	0.000	
25	 C16	-0.844	18.437	-19.496	C.3	1	C3W1	0.000	
26	 C17	-0.916	19.199	-20.642	C.3	1	C3W1	0.000	
27	 C18	-1.719	18.815	-21.726	C.3	1	C3W1	0.000	
28	 C19	0.590	20.164	-19.107	C.3	1	C3W1	0.000	
29	 C20	-0.041	20.420	-20.507	C.3	1	C3W1	0.000	
30	 C21	0.975	20.470	-21.656	C.3	1	C3W1	0.000	
31	 C22	5.392	24.200	-16.755	C.3	1	C3W1	0.000	
32	 C23	0.165	18.506	-17.239	C.3	1	C3W1	0.000	
33	 C24	1.365	17.556	-17.131	C.3	1	C3W1	0.000	
34	 C25	1.444	17.021	-15.694	C.3	1	C3W1	0.000	
35	 C26	2.627	16.044	-15.495	C.3	1	C3W1	0.000	
36	 C27	2.619	15.487	-14.053	C.3	1	C3W1	0.000	
37	 C29	1.621	25.385	-19.553	C.3	1	C3W1	0.000	
38	 C30	-0.941	21.666	-20.534	C.3	1	C3W1	0.000	
39	 O91	4.586	14.240	-14.642	 O	1	C3W1	0.000	
40	 O92	5.068	29.728	-21.942	 O	1	C3W1	0.000	
41	 C99	3.706	14.489	-13.834	C.3	1	C3W1	0.000	
42	  H1	6.495	28.976	-18.391	 H	1	C3W1	0.000	
43	  H2	6.479	26.817	-17.199	 H	1	C3W1	0.000	
44	  H3	3.324	27.612	-20.993	 H	1	C3W1	0.000	
45	  H4	4.421	24.144	-21.266	 H	1	C3W1	0.000	
46	  H5	2.760	23.546	-21.356	 H	1	C3W1	0.000	
47	  H6	3.136	25.168	-21.901	 H	1	C3W1	0.000	
48	  H7	3.457	22.342	-17.345	 H	1	C3W1	0.000	
49	  H8	1.694	22.553	-19.809	 H	1	C3W1	0.000	
50	  H9	1.872	20.591	-17.474	 H	1	C3W1	0.000	
51	 H10	-2.943	15.916	-20.367	 H	1	C3W1	0.000	
52	 H11	-1.507	16.637	-18.476	 H	1	C3W1	0.000	
53	 H12	-1.789	19.427	-22.625	 H	1	C3W1	0.000	
54	 H13	1.630	21.329	-21.589	 H	1	C3W1	0.000	
55	 H14	0.460	20.521	-22.620	 H	1	C3W1	0.000	
56	 H15	1.592	19.564	-21.663	 H	1	C3W1	0.000	
57	 H16	4.703	23.722	-16.065	 H	1	C3W1	0.000	
58	 H17	5.918	24.987	-16.213	 H	1	C3W1	0.000	
59	 H18	6.122	23.451	-17.089	 H	1	C3W1	0.000	
60	 H19	0.276	19.340	-16.540	 H	1	C3W1	0.000	
61	 H20	-0.748	17.977	-16.936	 H	1	C3W1	0.000	
62	 H21	2.289	18.105	-17.375	 H	1	C3W1	0.000	
63	 H22	1.256	16.737	-17.843	 H	1	C3W1	0.000	
64	 H23	1.555	17.855	-14.995	 H	1	C3W1	0.000	
65	 H24	0.517	16.501	-15.446	 H	1	C3W1	0.000	
66	 H25	3.566	16.577	-15.678	 H	1	C3W1	0.000	
67	 H26	2.540	15.227	-16.201	 H	1	C3W1	0.000	
68	 H27	2.760	16.312	-13.344	 H	1	C3W1	0.000	
69	 H28	1.652	15.033	-13.844	 H	1	C3W1	0.000	
70	 H29	1.370	26.230	-20.186	 H	1	C3W1	0.000	
71	 H30	0.944	24.565	-19.814	 H	1	C3W1	0.000	
72	 H31	1.418	25.666	-18.522	 H	1	C3W1	0.000	
73	 H32	-1.660	21.638	-19.716	 H	1	C3W1	0.000	
74	 H33	-0.363	22.588	-20.453	 H	1	C3W1	0.000	
75	 H34	-1.506	21.712	-21.466	 H	1	C3W1	0.000	
76	  P1	6.493	7.034	-6.104	P.3	2	POS1	1.166	
77	 O3P	5.202	6.281	-6.321	Du	2	POS1	-0.776	
78	 O4P	6.503	8.178	-5.121	Du	2	POS1	-0.776	
79	 O01	6.845	7.605	-7.390	Os	2	POS1	-0.539	
80	 C10	5.870	8.583	-7.761	C.3	2	POS1	0.334	
81	 C11	6.236	9.179	-9.134	C.3	2	POS1	-0.048	
82	 C12	5.203	10.279	-9.496	C.3	2	POS1	0.035	
83	 C13	5.536	10.986	-10.825	C.3	2	POS1	0.008	
84	 C14	4.450	12.041	-11.140	C.3	2	POS1	0.020	
85	 C15	4.774	12.837	-12.421	C.3	2	POS1	0.114	
86	 N99	3.724	13.828	-12.691	N.3	2	POS1	-0.495	
87	 H11	3.010	14.005	-12.000	 H	2	POS1	0.252	
88	 H12	4.864	12.149	-13.265	 H	2	POS1	0.034	
89	 H13	5.737	13.353	-12.296	 H	2	POS1	0.034	
90	 H14	3.487	11.538	-11.264	 H	2	POS1	0.004	
91	 H15	4.359	12.737	-10.303	 H	2	POS1	0.004	
92	 H16	5.591	10.268	-11.637	 H	2	POS1	-0.004	
93	 H17	6.510	11.481	-10.748	 H	2	POS1	-0.004	
94	 H18	4.213	9.835	-9.557	 H	2	POS1	-0.029	
95	 H19	5.176	11.025	-8.701	 H	2	POS1	-0.029	
96	 H23	7.208	9.652	-8.997	 H	2	POS1	0.022	
97	 H24	6.248	8.421	-9.918	 H	2	POS1	0.022	
98	 H25	5.849	9.377	-7.015	 H	2	POS1	-0.021	
99	 H26	4.888	8.114	-7.819	 H	2	POS1	-0.021	
100	   P	3.063	8.025	-4.135	 P	3	RC2	1.166	
101	 O1P	3.223	8.856	-5.350	O.2	3	RC2	-0.776	
102	 O2P	1.891	7.121	-4.118	 O	3	RC2	-0.776	
103	 C5'	5.621	7.881	-3.587	C.3	3	RC2	0.056	
104	 O5'	4.397	7.181	-3.881	O.3	3	RC2	-0.499	
105	 C4'	6.718	6.889	-3.258	C.3	3	RC2	0.106	
106	 O4'	6.486	6.363	-1.919	O.3	3	RC2	-0.355	
107	 C3'	6.776	5.641	-4.140	C.3	3	RC2	0.202	
108	 O3'	7.398	5.908	-5.390	O.3	3	RC2	-0.525	
109	 C2'	7.566	4.726	-3.208	C.3	3	RC2	0.067	
110	 O2'	8.949	5.085	-3.166	O.3	3	RC2	-0.614	
111	 C1'	6.874	5.000	-1.877	C.3	3	RC2	0.007	
112	  N1	5.666	4.158	-1.647	N.pl3	3	RC2	-0.048	
113	  C2	5.853	2.891	-1.100	C.2	3	RC2	0.754	
114	  O2	7.001	2.521	-0.831	O.2	3	RC2	-0.625	
115	  N3	4.764	2.108	-0.883	N.2	3	RC2	-0.758	
116	  C4	3.536	2.547	-1.188	C.2	3	RC2	0.818	
117	  N4	2.508	1.746	-0.956	N.pl3	3	RC2	-0.953	
118	  C5	3.323	3.847	-1.751	C.2	3	RC2	-0.521	
119	  C6	4.423	4.613	-1.961	C.2	3	RC2	0.005	
120	HO'2	9.266	5.035	-2.261	 H	3	RC2	0.419	
121	  H5	2.324	4.204	-1.999	 H	3	RC2	0.193	
122	  H6	4.309	5.609	-2.388	 H	3	RC2	0.196	
123	 H1'	7.560	4.764	-1.063	 H	3	RC2	0.203	
124	 H3'	5.823	5.221	-4.460	 H	3	RC2	0.062	
125	 H4'	7.638	7.457	-3.394	 H	3	RC2	0.117	
126	 H41	1.571	2.051	-1.176	 H	3	RC2	0.423	
127	 H42	2.661	0.830	-0.559	 H	3	RC2	0.423	
128	H2'1	7.570	3.677	-3.505	 H	3	RC2	0.097	
129	H5'1	5.462	8.536	-2.730	 H	3	RC2	0.068	
130	H5'2	5.916	8.473	-4.453	 H	3	RC2	0.068	
@<TRIPOS>BOND
1 1 3 1
2 1 4 1
3 1 13 1
4 2 9 1
5 2 15 1
6 2 31 1
7 3 8 1
8 3 16 1
9 3 40 1
10 4 7 1
11 4 42 1
12 5 25 1
13 5 28 1
14 5 32 1
15 6 10 1
16 6 12 1
17 6 14 1
18 6 22 1
19 7 9 1
20 7 43 1
21 9 11 1
22 11 13 1
23 11 17 1
24 13 44 1
25 15 17 1
26 15 19 1
27 17 18 1
28 17 37 1
29 18 45 1
30 18 46 1
31 18 47 1
32 19 20 1
33 19 48 1
34 20 21 1
35 20 49 1
36 21 28 1
37 21 50 1
38 22 23 1
39 22 27 1
40 23 24 1
41 23 51 1
42 24 25 1
43 24 52 1
44 25 26 1
45 26 27 1
46 26 29 1
47 27 53 1
48 28 29 1
49 29 30 1
50 29 38 1
51 30 54 1
52 30 55 1
53 30 56 1
54 31 57 1
55 31 58 1
56 31 59 1
57 32 33 1
58 32 60 1
59 32 61 1
60 33 34 1
61 33 62 1
62 33 63 1
63 34 35 1
64 34 64 1
65 34 65 1
66 35 36 1
67 35 66 1
68 35 67 1
69 36 41 1
70 36 68 1
71 36 69 1
72 37 70 1
73 37 71 1
74 37 72 1
75 38 73 1
76 38 74 1
77 38 75 1
78 39 41 1
79 76 77 1
80 76 78 1
81 76 79 1
82 76 108 1
83 79 80 1
84 80 81 1
85 80 98 1
86 80 99 1
87 81 82 1
88 81 96 1
89 81 97 1
90 82 83 1
91 82 94 1
92 82 95 1
93 83 84 1
94 83 92 1
95 83 93 1
96 84 85 1
97 84 90 1
98 84 91 1
99 85 86 1
100 85 88 1
101 85 89 1
102 86 87 1
103 100 101 2
104 100 102 1
105 100 104 1
106 103 104 1
107 103 105 1
108 103 129 1
109 103 130 1
110 105 106 1
111 105 107 1
112 105 125 1
113 106 111 1
114 107 108 1
115 107 109 1
116 107 124 1
117 109 110 1
118 109 111 1
119 109 128 1
120 110 120 1
121 111 112 1
122 111 123 1
123 112 113 1
124 112 119 1
125 113 114 2
126 113 115 1
127 115 116 2
128 116 117 1
129 116 118 1
130 117 126 1
131 117 127 1
132 118 119 2
133 118 121 1
134 119 122 1
135 41 86 1
@<TRIPOS>SUBSTRUCTURE
1	C3W1	1	GROUP	1 ****	C3W
2	POS1	76	GROUP	1 ****	POS
3	RC2	100	GROUP	1 ****	RC
