# created with PyMOL 2.3.3
@<TRIPOS>MOLECULE
C55_L1R
140 147 3               
SMALL
USER_CHARGES
@<TRIPOS>ATOM
1	  C1	-5.822	13.658	-27.642	C.3	1	C551	0.000	
2	  N1	-4.118	13.763	-23.876	N.3	1	C551	0.000	
3	  C2	-5.911	12.490	-26.864	C.3	1	C551	0.000	
4	  N2	0.884	20.077	-18.201	N.3	1	C551	0.000	
5	  C3	-5.340	12.468	-25.586	C.3	1	C551	0.000	
6	  C4	-4.701	13.599	-25.109	C.3	1	C551	0.000	
7	  C5	-4.584	14.769	-25.862	C.3	1	C551	0.000	
8	  C6	-5.148	14.813	-27.158	C.3	1	C551	0.000	
9	  C7	-3.550	15.033	-23.763	C.3	1	C551	0.000	
10	  C8	-3.813	15.820	-25.065	C.3	1	C551	0.000	
11	  C9	-4.680	17.053	-24.810	C.3	1	C551	0.000	
12	 C10	-2.845	15.515	-22.573	C.3	1	C551	0.000	
13	 C11	-0.341	18.653	-19.672	C.3	1	C551	0.000	
14	 C12	2.937	23.638	-18.672	C.3	1	C551	0.000	
15	 C13	2.988	23.050	-17.401	C.3	1	C551	0.000	
16	 C14	2.317	21.841	-17.164	C.3	1	C551	0.000	
17	 C15	1.602	21.241	-18.217	C.3	1	C551	0.000	
18	 C16	1.543	21.825	-19.486	C.3	1	C551	0.000	
19	 C17	2.208	23.039	-19.730	C.3	1	C551	0.000	
20	 C18	0.355	19.779	-19.428	C.3	1	C551	0.000	
21	 C19	0.698	20.937	-20.397	C.3	1	C551	0.000	
22	 C20	-0.560	21.678	-20.879	C.3	1	C551	0.000	
23	 C21	0.727	19.298	-16.945	C.3	1	C551	0.000	
24	 C22	1.826	18.204	-16.822	C.3	1	C551	0.000	
25	 C23	1.673	17.413	-15.502	C.3	1	C551	0.000	
26	 C24	2.730	16.284	-15.375	C.3	1	C551	0.000	
27	 C25	2.612	15.492	-14.053	C.3	1	C551	0.000	
28	 C27	-5.085	15.947	-27.985	C.3	1	C551	0.000	
29	 C28	-5.670	15.934	-29.264	C.3	1	C551	0.000	
30	 C29	-6.344	14.788	-29.726	C.3	1	C551	0.000	
31	 C30	-6.409	13.653	-28.914	C.3	1	C551	0.000	
32	 C31	3.615	24.852	-18.867	C.3	1	C551	0.000	
33	 C32	3.577	25.484	-20.117	C.3	1	C551	0.000	
34	 C33	2.857	24.907	-21.179	C.3	1	C551	0.000	
35	 C34	2.179	23.693	-20.984	C.3	1	C551	0.000	
36	 C35	-2.496	16.175	-25.781	C.3	1	C551	0.000	
37	 C36	1.531	20.441	-21.597	C.3	1	C551	0.000	
38	 C38	-2.252	16.709	-22.362	C.3	1	C551	0.000	
39	 C39	-1.593	17.092	-21.124	C.3	1	C551	0.000	
40	 C40	-0.970	18.255	-20.928	C.3	1	C551	0.000	
41	 C41	-4.142	12.690	-22.875	C.3	1	C551	0.000	
42	 O91	4.589	14.238	-14.642	 O	1	C551	0.000	
43	 C99	3.711	14.486	-13.835	C.3	1	C551	0.000	
44	  H1	-6.425	11.612	-27.247	 H	1	C551	0.000	
45	  H2	-5.414	11.563	-24.986	 H	1	C551	0.000	
46	  H3	-4.211	17.734	-24.094	 H	1	C551	0.000	
47	  H4	-4.870	17.619	-25.710	 H	1	C551	0.000	
48	  H5	-5.641	16.756	-24.385	 H	1	C551	0.000	
49	  H6	-2.794	14.822	-21.737	 H	1	C551	0.000	
50	  H7	-0.469	17.918	-18.881	 H	1	C551	0.000	
51	  H8	3.551	23.512	-16.595	 H	1	C551	0.000	
52	  H9	2.363	21.374	-16.187	 H	1	C551	0.000	
53	 H10	-1.236	21.030	-21.449	 H	1	C551	0.000	
54	 H11	-0.333	22.522	-21.519	 H	1	C551	0.000	
55	 H12	-1.126	22.052	-20.020	 H	1	C551	0.000	
56	 H13	0.764	19.964	-16.083	 H	1	C551	0.000	
57	 H14	-0.252	18.826	-16.922	 H	1	C551	0.000	
58	 H15	2.826	18.664	-16.848	 H	1	C551	0.000	
59	 H16	1.760	17.522	-17.668	 H	1	C551	0.000	
60	 H17	1.745	18.103	-14.657	 H	1	C551	0.000	
61	 H18	0.682	16.952	-15.483	 H	1	C551	0.000	
62	 H19	3.741	16.698	-15.472	 H	1	C551	0.000	
63	 H20	2.589	15.594	-16.200	 H	1	C551	0.000	
64	 H21	2.606	16.199	-13.213	 H	1	C551	0.000	
65	 H22	1.666	14.964	-14.029	 H	1	C551	0.000	
66	 H23	-4.588	16.848	-27.659	 H	1	C551	0.000	
67	 H24	-5.627	16.818	-29.900	 H	1	C551	0.000	
68	 H25	-6.806	14.774	-30.708	 H	1	C551	0.000	
69	 H26	-6.927	12.764	-29.288	 H	1	C551	0.000	
70	 H27	4.174	25.304	-18.053	 H	1	C551	0.000	
71	 H28	4.105	26.420	-20.277	 H	1	C551	0.000	
72	 H29	2.827	25.393	-22.139	 H	1	C551	0.000	
73	 H30	1.634	23.285	-21.820	 H	1	C551	0.000	
74	 H31	-2.670	16.683	-26.719	 H	1	C551	0.000	
75	 H32	-1.871	16.822	-25.173	 H	1	C551	0.000	
76	 H33	-1.930	15.268	-25.980	 H	1	C551	0.000	
77	 H34	2.436	19.948	-21.237	 H	1	C551	0.000	
78	 H35	0.994	19.716	-22.211	 H	1	C551	0.000	
79	 H36	1.844	21.240	-22.261	 H	1	C551	0.000	
80	 H41	-2.247	17.464	-23.150	 H	1	C551	0.000	
81	 H42	-1.635	16.363	-20.318	 H	1	C551	0.000	
82	 H43	-0.949	18.953	-21.756	 H	1	C551	0.000	
83	 H44	-5.127	12.205	-22.857	 H	1	C551	0.000	
84	 H45	-3.383	11.945	-23.096	 H	1	C551	0.000	
85	 H46	-3.972	13.079	-21.866	 H	1	C551	0.000	
86	  P1	6.493	7.034	-6.104	P.3	2	POS1	1.166	
87	 O3P	5.202	6.281	-6.321	Du	2	POS1	-0.776	
88	 O4P	6.503	8.178	-5.121	Du	2	POS1	-0.776	
89	 O01	6.845	7.605	-7.390	Os	2	POS1	-0.539	
90	 C10	5.870	8.583	-7.761	C.3	2	POS1	0.334	
91	 C11	6.236	9.179	-9.134	C.3	2	POS1	-0.048	
92	 C12	5.203	10.279	-9.496	C.3	2	POS1	0.035	
93	 C13	5.536	10.986	-10.825	C.3	2	POS1	0.008	
94	 C14	4.450	12.041	-11.140	C.3	2	POS1	0.020	
95	 C15	4.774	12.837	-12.421	C.3	2	POS1	0.114	
96	 N99	3.724	13.828	-12.691	N.3	2	POS1	-0.495	
97	 H11	3.010	14.005	-12.000	 H	2	POS1	0.252	
98	 H12	4.864	12.149	-13.265	 H	2	POS1	0.034	
99	 H13	5.737	13.353	-12.296	 H	2	POS1	0.034	
100	 H14	3.487	11.538	-11.264	 H	2	POS1	0.004	
101	 H15	4.359	12.737	-10.303	 H	2	POS1	0.004	
102	 H16	5.591	10.268	-11.637	 H	2	POS1	-0.004	
103	 H17	6.510	11.481	-10.748	 H	2	POS1	-0.004	
104	 H18	4.213	9.835	-9.557	 H	2	POS1	-0.029	
105	 H19	5.176	11.025	-8.701	 H	2	POS1	-0.029	
106	 H23	7.208	9.652	-8.997	 H	2	POS1	0.022	
107	 H24	6.248	8.421	-9.918	 H	2	POS1	0.022	
108	 H25	5.849	9.377	-7.015	 H	2	POS1	-0.021	
109	 H26	4.888	8.114	-7.819	 H	2	POS1	-0.021	
110	   P	3.063	8.025	-4.135	 P	3	RC2	1.166	
111	 O1P	3.223	8.856	-5.350	O.2	3	RC2	-0.776	
112	 O2P	1.891	7.121	-4.118	 O	3	RC2	-0.776	
113	 C5'	5.621	7.881	-3.587	C.3	3	RC2	0.056	
114	 O5'	4.397	7.181	-3.881	O.3	3	RC2	-0.499	
115	 C4'	6.718	6.889	-3.258	C.3	3	RC2	0.106	
116	 O4'	6.486	6.363	-1.919	O.3	3	RC2	-0.355	
117	 C3'	6.776	5.641	-4.140	C.3	3	RC2	0.202	
118	 O3'	7.398	5.908	-5.390	O.3	3	RC2	-0.525	
119	 C2'	7.566	4.726	-3.208	C.3	3	RC2	0.067	
120	 O2'	8.949	5.085	-3.166	O.3	3	RC2	-0.614	
121	 C1'	6.874	5.000	-1.877	C.3	3	RC2	0.007	
122	  N1	5.666	4.158	-1.647	N.pl3	3	RC2	-0.048	
123	  C2	5.853	2.891	-1.100	C.2	3	RC2	0.754	
124	  O2	7.001	2.521	-0.831	O.2	3	RC2	-0.625	
125	  N3	4.764	2.108	-0.883	N.2	3	RC2	-0.758	
126	  C4	3.536	2.547	-1.188	C.2	3	RC2	0.818	
127	  N4	2.508	1.746	-0.956	N.pl3	3	RC2	-0.953	
128	  C5	3.323	3.847	-1.751	C.2	3	RC2	-0.521	
129	  C6	4.423	4.613	-1.961	C.2	3	RC2	0.005	
130	HO'2	9.266	5.035	-2.261	 H	3	RC2	0.419	
131	  H5	2.324	4.204	-1.999	 H	3	RC2	0.193	
132	  H6	4.309	5.609	-2.388	 H	3	RC2	0.196	
133	 H1'	7.560	4.764	-1.063	 H	3	RC2	0.203	
134	 H3'	5.823	5.221	-4.460	 H	3	RC2	0.062	
135	 H4'	7.638	7.457	-3.394	 H	3	RC2	0.117	
136	 H41	1.571	2.051	-1.176	 H	3	RC2	0.423	
137	 H42	2.661	0.830	-0.559	 H	3	RC2	0.423	
138	H2'1	7.570	3.677	-3.505	 H	3	RC2	0.097	
139	H5'1	5.462	8.536	-2.730	 H	3	RC2	0.068	
140	H5'2	5.916	8.473	-4.453	 H	3	RC2	0.068	
@<TRIPOS>BOND
1 1 3 1
2 1 8 1
3 1 31 1
4 2 6 1
5 2 9 1
6 2 41 1
7 3 5 1
8 3 44 1
9 4 17 1
10 4 20 1
11 4 23 1
12 5 6 1
13 5 45 1
14 6 7 1
15 7 8 1
16 7 10 1
17 8 28 1
18 9 10 1
19 9 12 1
20 10 11 1
21 10 36 1
22 11 46 1
23 11 47 1
24 11 48 1
25 12 38 1
26 12 49 1
27 13 20 1
28 13 40 1
29 13 50 1
30 14 15 1
31 14 19 1
32 14 32 1
33 15 16 1
34 15 51 1
35 16 17 1
36 16 52 1
37 17 18 1
38 18 19 1
39 18 21 1
40 19 35 1
41 20 21 1
42 21 22 1
43 21 37 1
44 22 53 1
45 22 54 1
46 22 55 1
47 23 24 1
48 23 56 1
49 23 57 1
50 24 25 1
51 24 58 1
52 24 59 1
53 25 26 1
54 25 60 1
55 25 61 1
56 26 27 1
57 26 62 1
58 26 63 1
59 27 43 1
60 27 64 1
61 27 65 1
62 28 29 1
63 28 66 1
64 29 30 1
65 29 67 1
66 30 31 1
67 30 68 1
68 31 69 1
69 32 33 1
70 32 70 1
71 33 34 1
72 33 71 1
73 34 35 1
74 34 72 1
75 35 73 1
76 36 74 1
77 36 75 1
78 36 76 1
79 37 77 1
80 37 78 1
81 37 79 1
82 38 39 1
83 38 80 1
84 39 40 1
85 39 81 1
86 40 82 1
87 41 83 1
88 41 84 1
89 41 85 1
90 42 43 1
91 86 87 1
92 86 88 1
93 86 89 1
94 86 118 1
95 89 90 1
96 90 91 1
97 90 108 1
98 90 109 1
99 91 92 1
100 91 106 1
101 91 107 1
102 92 93 1
103 92 104 1
104 92 105 1
105 93 94 1
106 93 102 1
107 93 103 1
108 94 95 1
109 94 100 1
110 94 101 1
111 95 96 1
112 95 98 1
113 95 99 1
114 96 97 1
115 110 111 2
116 110 112 1
117 110 114 1
118 113 114 1
119 113 115 1
120 113 139 1
121 113 140 1
122 115 116 1
123 115 117 1
124 115 135 1
125 116 121 1
126 117 118 1
127 117 119 1
128 117 134 1
129 119 120 1
130 119 121 1
131 119 138 1
132 120 130 1
133 121 122 1
134 121 133 1
135 122 123 1
136 122 129 1
137 123 124 2
138 123 125 1
139 125 126 2
140 126 127 1
141 126 128 1
142 127 136 1
143 127 137 1
144 128 129 2
145 128 131 1
146 129 132 1
147 43 96 1
@<TRIPOS>SUBSTRUCTURE
1	C551	1	GROUP	1 ****	C55
2	POS1	86	GROUP	1 ****	POS
3	RC2	110	GROUP	1 ****	RC
