# created with PyMOL 2.3.3
@<TRIPOS>MOLECULE
C5W
134 139 3               
SMALL
USER_CHARGES
@<TRIPOS>ATOM
1	  C1	9.659	29.142	-14.002	C.3	1	C5W1	0.000	
2	  N1	7.553	25.604	-13.550	N.3	1	C5W1	0.000	
3	  S1	10.510	30.656	-14.297	S.3	1	C5W1	0.000	
4	  C2	9.756	28.498	-12.759	C.3	1	C5W1	0.000	
5	  N2	1.178	20.042	-18.274	N.3	1	C5W1	0.000	
6	  S2	-0.891	19.086	-23.709	S.3	1	C5W1	0.000	
7	  C3	9.100	27.298	-12.505	C.3	1	C5W1	0.000	
8	  O3	11.628	30.120	-15.022	 O	1	C5W1	0.000	
9	  C4	8.303	26.748	-13.520	C.3	1	C5W1	0.000	
10	  O4	-0.060	19.756	-24.669	 O	1	C5W1	0.000	
11	  C5	8.187	27.383	-14.754	C.3	1	C5W1	0.000	
12	  O5	-1.336	17.735	-23.880	 O	1	C5W1	0.000	
13	  C6	8.867	28.579	-15.007	C.3	1	C5W1	0.000	
14	  O6	-2.110	19.860	-23.655	 O	1	C5W1	0.000	
15	  C7	6.914	25.460	-14.778	C.3	1	C5W1	0.000	
16	  O7	9.842	31.399	-15.331	 O	1	C5W1	0.000	
17	  C8	7.267	26.610	-15.673	C.3	1	C5W1	0.000	
18	  C9	8.034	26.154	-16.920	C.3	1	C5W1	0.000	
19	 C10	6.010	24.365	-15.088	C.3	1	C5W1	0.000	
20	 C11	5.310	24.135	-16.198	C.3	1	C5W1	0.000	
21	 C12	2.744	21.583	-17.417	C.3	1	C5W1	0.000	
22	 C13	-0.317	19.349	-22.066	C.3	1	C5W1	0.000	
23	 C14	-0.716	18.472	-21.050	C.3	1	C5W1	0.000	
24	 C15	-0.281	18.617	-19.738	C.3	1	C5W1	0.000	
25	 C16	0.590	19.665	-19.441	C.3	1	C5W1	0.000	
26	 C17	1.006	20.544	-20.454	C.3	1	C5W1	0.000	
27	 C18	0.555	20.397	-21.769	C.3	1	C5W1	0.000	
28	 C19	2.007	21.098	-18.424	C.3	1	C5W1	0.000	
29	 C20	1.948	21.570	-19.865	C.3	1	C5W1	0.000	
30	 C21	3.302	21.513	-20.581	C.3	1	C5W1	0.000	
31	 C22	7.467	24.703	-12.411	C.3	1	C5W1	0.000	
32	 C23	0.926	19.290	-17.042	C.3	1	C5W1	0.000	
33	 C24	1.979	18.198	-16.846	C.3	1	C5W1	0.000	
34	 C25	1.741	17.366	-15.570	C.3	1	C5W1	0.000	
35	 C26	2.830	16.287	-15.359	C.3	1	C5W1	0.000	
36	 C27	2.620	15.490	-14.059	C.3	1	C5W1	0.000	
37	 C29	6.057	27.472	-16.044	C.3	1	C5W1	0.000	
38	 C30	1.346	22.978	-20.011	C.3	1	C5W1	0.000	
39	 C32	4.396	23.021	-16.334	C.3	1	C5W1	0.000	
40	 C33	3.653	22.710	-17.403	C.3	1	C5W1	0.000	
41	 O91	4.580	14.246	-14.643	 O	1	C5W1	0.000	
42	 O92	11.002	31.251	-13.089	 O	1	C5W1	0.000	
43	 C99	3.712	14.481	-13.827	C.3	1	C5W1	0.000	
44	  H1	10.372	28.939	-11.979	 H	1	C5W1	0.000	
45	  H2	9.193	26.822	-11.535	 H	1	C5W1	0.000	
46	  H3	8.784	29.064	-15.972	 H	1	C5W1	0.000	
47	  H4	8.391	27.011	-17.503	 H	1	C5W1	0.000	
48	  H5	8.900	25.551	-16.641	 H	1	C5W1	0.000	
49	  H6	7.396	25.547	-17.581	 H	1	C5W1	0.000	
50	  H7	5.881	23.643	-14.283	 H	1	C5W1	0.000	
51	  H8	5.366	24.808	-17.051	 H	1	C5W1	0.000	
52	  H9	2.687	21.110	-16.445	 H	1	C5W1	0.000	
53	 H10	-1.399	17.658	-21.286	 H	1	C5W1	0.000	
54	 H11	-0.604	17.927	-18.970	 H	1	C5W1	0.000	
55	 H12	0.884	21.081	-22.540	 H	1	C5W1	0.000	
56	 H13	3.987	22.272	-20.205	 H	1	C5W1	0.000	
57	 H14	3.180	21.686	-21.656	 H	1	C5W1	0.000	
58	 H15	3.762	20.529	-20.454	 H	1	C5W1	0.000	
59	 H16	6.425	24.413	-12.244	 H	1	C5W1	0.000	
60	 H17	7.839	25.157	-11.497	 H	1	C5W1	0.000	
61	 H18	8.045	23.804	-12.628	 H	1	C5W1	0.000	
62	 H19	0.919	19.965	-16.187	 H	1	C5W1	0.000	
63	 H20	-0.067	18.837	-17.066	 H	1	C5W1	0.000	
64	 H21	2.981	18.621	-16.807	 H	1	C5W1	0.000	
65	 H22	1.963	17.520	-17.697	 H	1	C5W1	0.000	
66	 H23	1.698	18.018	-14.704	 H	1	C5W1	0.000	
67	 H24	0.769	16.873	-15.663	 H	1	C5W1	0.000	
68	 H25	3.811	16.769	-15.318	 H	1	C5W1	0.000	
69	 H26	2.856	15.606	-16.204	 H	1	C5W1	0.000	
70	 H27	2.616	16.192	-13.224	 H	1	C5W1	0.000	
71	 H28	1.643	15.000	-14.072	 H	1	C5W1	0.000	
72	 H29	6.367	28.376	-16.567	 H	1	C5W1	0.000	
73	 H30	5.357	26.944	-16.686	 H	1	C5W1	0.000	
74	 H31	5.517	27.777	-15.140	 H	1	C5W1	0.000	
75	 H32	1.224	23.223	-21.072	 H	1	C5W1	0.000	
76	 H33	0.356	23.014	-19.541	 H	1	C5W1	0.000	
77	 H34	1.973	23.749	-19.554	 H	1	C5W1	0.000	
78	 H39	4.302	22.387	-15.457	 H	1	C5W1	0.000	
79	 H40	3.726	23.341	-18.292	 H	1	C5W1	0.000	
80	  P1	6.493	7.034	-6.104	P.3	2	POS1	1.166	
81	 O3P	5.202	6.281	-6.321	Du	2	POS1	-0.776	
82	 O4P	6.503	8.178	-5.121	Du	2	POS1	-0.776	
83	 O01	6.845	7.605	-7.390	Os	2	POS1	-0.539	
84	 C10	5.870	8.583	-7.761	C.3	2	POS1	0.334	
85	 C11	6.236	9.179	-9.134	C.3	2	POS1	-0.048	
86	 C12	5.203	10.279	-9.496	C.3	2	POS1	0.035	
87	 C13	5.536	10.986	-10.825	C.3	2	POS1	0.008	
88	 C14	4.450	12.041	-11.140	C.3	2	POS1	0.020	
89	 C15	4.774	12.837	-12.421	C.3	2	POS1	0.114	
90	 N99	3.724	13.828	-12.691	N.3	2	POS1	-0.495	
91	 H11	3.010	14.005	-12.000	 H	2	POS1	0.252	
92	 H12	4.864	12.149	-13.265	 H	2	POS1	0.034	
93	 H13	5.737	13.353	-12.296	 H	2	POS1	0.034	
94	 H14	3.487	11.538	-11.264	 H	2	POS1	0.004	
95	 H15	4.359	12.737	-10.303	 H	2	POS1	0.004	
96	 H16	5.591	10.268	-11.637	 H	2	POS1	-0.004	
97	 H17	6.510	11.481	-10.748	 H	2	POS1	-0.004	
98	 H18	4.213	9.835	-9.557	 H	2	POS1	-0.029	
99	 H19	5.176	11.025	-8.701	 H	2	POS1	-0.029	
100	 H23	7.208	9.652	-8.997	 H	2	POS1	0.022	
101	 H24	6.248	8.421	-9.918	 H	2	POS1	0.022	
102	 H25	5.849	9.377	-7.015	 H	2	POS1	-0.021	
103	 H26	4.888	8.114	-7.819	 H	2	POS1	-0.021	
104	   P	3.063	8.025	-4.135	 P	3	RC2	1.166	
105	 O1P	3.223	8.856	-5.350	O.2	3	RC2	-0.776	
106	 O2P	1.891	7.121	-4.118	 O	3	RC2	-0.776	
107	 C5'	5.621	7.881	-3.587	C.3	3	RC2	0.056	
108	 O5'	4.397	7.181	-3.881	O.3	3	RC2	-0.499	
109	 C4'	6.718	6.889	-3.258	C.3	3	RC2	0.106	
110	 O4'	6.486	6.363	-1.919	O.3	3	RC2	-0.355	
111	 C3'	6.776	5.641	-4.140	C.3	3	RC2	0.202	
112	 O3'	7.398	5.908	-5.390	O.3	3	RC2	-0.525	
113	 C2'	7.566	4.726	-3.208	C.3	3	RC2	0.067	
114	 O2'	8.949	5.085	-3.166	O.3	3	RC2	-0.614	
115	 C1'	6.874	5.000	-1.877	C.3	3	RC2	0.007	
116	  N1	5.666	4.158	-1.647	N.pl3	3	RC2	-0.048	
117	  C2	5.853	2.891	-1.100	C.2	3	RC2	0.754	
118	  O2	7.001	2.521	-0.831	O.2	3	RC2	-0.625	
119	  N3	4.764	2.108	-0.883	N.2	3	RC2	-0.758	
120	  C4	3.536	2.547	-1.188	C.2	3	RC2	0.818	
121	  N4	2.508	1.746	-0.956	N.pl3	3	RC2	-0.953	
122	  C5	3.323	3.847	-1.751	C.2	3	RC2	-0.521	
123	  C6	4.423	4.613	-1.961	C.2	3	RC2	0.005	
124	HO'2	9.266	5.035	-2.261	 H	3	RC2	0.419	
125	  H5	2.324	4.204	-1.999	 H	3	RC2	0.193	
126	  H6	4.309	5.609	-2.388	 H	3	RC2	0.196	
127	 H1'	7.560	4.764	-1.063	 H	3	RC2	0.203	
128	 H3'	5.823	5.221	-4.460	 H	3	RC2	0.062	
129	 H4'	7.638	7.457	-3.394	 H	3	RC2	0.117	
130	 H41	1.571	2.051	-1.176	 H	3	RC2	0.423	
131	 H42	2.661	0.830	-0.559	 H	3	RC2	0.423	
132	H2'1	7.570	3.677	-3.505	 H	3	RC2	0.097	
133	H5'1	5.462	8.536	-2.730	 H	3	RC2	0.068	
134	H5'2	5.916	8.473	-4.453	 H	3	RC2	0.068	
@<TRIPOS>BOND
1 1 3 1
2 1 4 1
3 1 13 1
4 2 9 1
5 2 15 1
6 2 31 1
7 3 8 1
8 3 16 1
9 3 42 1
10 4 7 1
11 4 44 1
12 5 25 1
13 5 28 1
14 5 32 1
15 6 10 1
16 6 12 1
17 6 14 1
18 6 22 1
19 7 9 1
20 7 45 1
21 9 11 1
22 11 13 1
23 11 17 1
24 13 46 1
25 15 17 1
26 15 19 1
27 17 18 1
28 17 37 1
29 18 47 1
30 18 48 1
31 18 49 1
32 19 20 1
33 19 50 1
34 20 39 1
35 20 51 1
36 21 28 1
37 21 40 1
38 21 52 1
39 22 23 1
40 22 27 1
41 23 24 1
42 23 53 1
43 24 25 1
44 24 54 1
45 25 26 1
46 26 27 1
47 26 29 1
48 27 55 1
49 28 29 1
50 29 30 1
51 29 38 1
52 30 56 1
53 30 57 1
54 30 58 1
55 31 59 1
56 31 60 1
57 31 61 1
58 32 33 1
59 32 62 1
60 32 63 1
61 33 34 1
62 33 64 1
63 33 65 1
64 34 35 1
65 34 66 1
66 34 67 1
67 35 36 1
68 35 68 1
69 35 69 1
70 36 43 1
71 36 70 1
72 36 71 1
73 37 72 1
74 37 73 1
75 37 74 1
76 38 75 1
77 38 76 1
78 38 77 1
79 39 40 1
80 39 78 1
81 40 79 1
82 41 43 1
83 80 81 1
84 80 82 1
85 80 83 1
86 80 112 1
87 83 84 1
88 84 85 1
89 84 102 1
90 84 103 1
91 85 86 1
92 85 100 1
93 85 101 1
94 86 87 1
95 86 98 1
96 86 99 1
97 87 88 1
98 87 96 1
99 87 97 1
100 88 89 1
101 88 94 1
102 88 95 1
103 89 90 1
104 89 92 1
105 89 93 1
106 90 91 1
107 104 105 2
108 104 106 1
109 104 108 1
110 107 108 1
111 107 109 1
112 107 133 1
113 107 134 1
114 109 110 1
115 109 111 1
116 109 129 1
117 110 115 1
118 111 112 1
119 111 113 1
120 111 128 1
121 113 114 1
122 113 115 1
123 113 132 1
124 114 124 1
125 115 116 1
126 115 127 1
127 116 117 1
128 116 123 1
129 117 118 2
130 117 119 1
131 119 120 2
132 120 121 1
133 120 122 1
134 121 130 1
135 121 131 1
136 122 123 2
137 122 125 1
138 123 126 1
139 43 90 1
@<TRIPOS>SUBSTRUCTURE
1	C5W1	1	GROUP	1 ****	C5W
2	POS1	80	GROUP	1 ****	POS
3	RC2	104	GROUP	1 ****	RC
