# created with PyMOL 2.3.3
@<TRIPOS>MOLECULE
C75_L1R
151 159 3               
SMALL
USER_CHARGES
@<TRIPOS>ATOM
1	  C1	-4.292	13.683	-30.992	C.3	1	C751	0.000	
2	  N1	-3.873	12.747	-26.982	N.3	1	C751	0.000	
3	  C2	-4.581	12.359	-30.618	C.3	1	C751	0.000	
4	  N2	0.930	19.912	-18.272	N.3	1	C751	0.000	
5	  C3	-4.458	11.969	-29.273	C.3	1	C751	0.000	
6	  C4	-4.045	12.918	-28.331	C.3	1	C751	0.000	
7	  C5	-3.750	14.231	-28.689	C.3	1	C751	0.000	
8	  C6	-3.870	14.642	-30.045	C.3	1	C751	0.000	
9	  C7	-3.463	13.940	-26.392	C.3	1	C751	0.000	
10	  C8	-3.330	15.028	-27.458	C.3	1	C751	0.000	
11	  C9	-4.305	16.192	-27.205	C.3	1	C751	0.000	
12	 C10	-3.194	14.108	-24.952	C.3	1	C751	0.000	
13	 C11	-0.337	18.475	-19.719	C.3	1	C751	0.000	
14	 C12	3.243	23.278	-18.869	C.3	1	C751	0.000	
15	 C13	3.208	22.768	-17.556	C.3	1	C751	0.000	
16	 C14	2.433	21.634	-17.266	C.3	1	C751	0.000	
17	 C15	1.717	21.025	-18.316	C.3	1	C751	0.000	
18	 C16	1.748	21.521	-19.613	C.3	1	C751	0.000	
19	 C17	2.515	22.673	-19.911	C.3	1	C751	0.000	
20	 C18	0.419	19.579	-19.493	C.3	1	C751	0.000	
21	 C19	0.896	20.633	-20.521	C.3	1	C751	0.000	
22	 C20	-0.306	21.421	-21.093	C.3	1	C751	0.000	
23	 C21	0.752	19.163	-17.007	C.3	1	C751	0.000	
24	 C22	1.860	18.115	-16.837	C.3	1	C751	0.000	
25	 C23	1.663	17.303	-15.547	C.3	1	C751	0.000	
26	 C24	2.792	16.263	-15.366	C.3	1	C751	0.000	
27	 C25	2.617	15.489	-14.055	C.3	1	C751	0.000	
28	 C27	-3.608	15.962	-30.465	C.3	1	C751	0.000	
29	 C28	-3.742	16.316	-31.820	C.3	1	C751	0.000	
30	 C29	-4.153	15.362	-32.754	C.3	1	C751	0.000	
31	 C30	-4.431	14.051	-32.347	C.3	1	C751	0.000	
32	 C31	4.033	24.412	-19.124	C.3	1	C751	0.000	
33	 C32	4.104	24.951	-20.416	C.3	1	C751	0.000	
34	 C33	3.371	24.367	-21.453	C.3	1	C751	0.000	
35	 C34	2.579	23.232	-21.212	C.3	1	C751	0.000	
36	 C35	-1.855	15.492	-27.599	C.3	1	C751	0.000	
37	 C36	1.771	19.989	-21.628	C.3	1	C751	0.000	
38	 C38	-1.570	16.865	-21.234	C.3	1	C751	0.000	
39	 C39	-0.903	18.024	-20.984	C.3	1	C751	0.000	
40	 C40	-4.122	11.468	-26.310	C.3	1	C751	0.000	
41	 C41	-2.753	15.217	-24.334	C.3	1	C751	0.000	
42	 C42	-2.484	15.442	-22.915	C.3	1	C751	0.000	
43	 C43	-1.929	16.593	-22.508	C.3	1	C751	0.000	
44	 C44	-2.780	14.332	-21.922	C.3	1	C751	0.000	
45	 C45	-3.029	14.938	-20.535	C.3	1	C751	0.000	
46	 C46	-1.862	15.863	-20.133	C.3	1	C751	0.000	
47	 O91	4.586	14.241	-14.643	 O	1	C751	0.000	
48	 C99	3.709	14.486	-13.831	C.3	1	C751	0.000	
49	  H1	-4.900	11.637	-31.369	 H	1	C751	0.000	
50	  H2	-4.687	10.948	-28.993	 H	1	C751	0.000	
51	  H3	-4.055	17.059	-27.812	 H	1	C751	0.000	
52	  H4	-5.330	15.874	-27.432	 H	1	C751	0.000	
53	  H5	-4.287	16.518	-26.179	 H	1	C751	0.000	
54	  H6	-3.386	13.224	-24.342	 H	1	C751	0.000	
55	  H7	-0.566	17.823	-18.875	 H	1	C751	0.000	
56	  H8	3.777	23.253	-16.768	 H	1	C751	0.000	
57	  H9	2.413	21.237	-16.255	 H	1	C751	0.000	
58	 H10	-0.834	21.959	-20.298	 H	1	C751	0.000	
59	 H11	-1.031	20.768	-21.578	 H	1	C751	0.000	
60	 H12	-0.004	22.159	-21.834	 H	1	C751	0.000	
61	 H13	0.765	19.861	-16.155	 H	1	C751	0.000	
62	 H14	-0.224	18.673	-16.989	 H	1	C751	0.000	
63	 H15	2.841	18.611	-16.812	 H	1	C751	0.000	
64	 H16	1.858	17.443	-17.700	 H	1	C751	0.000	
65	 H17	1.643	17.975	-14.688	 H	1	C751	0.000	
66	 H18	0.698	16.789	-15.578	 H	1	C751	0.000	
67	 H19	3.752	16.781	-15.356	 H	1	C751	0.000	
68	 H20	2.786	15.576	-16.213	 H	1	C751	0.000	
69	 H21	2.584	16.193	-13.220	 H	1	C751	0.000	
70	 H22	1.665	14.945	-14.062	 H	1	C751	0.000	
71	 H23	-3.280	16.726	-29.778	 H	1	C751	0.000	
72	 H24	-3.529	17.338	-32.133	 H	1	C751	0.000	
73	 H25	-4.267	15.630	-33.799	 H	1	C751	0.000	
74	 H26	-4.743	13.318	-33.083	 H	1	C751	0.000	
75	 H27	4.601	24.877	-18.312	 H	1	C751	0.000	
76	 H28	4.731	25.828	-20.608	 H	1	C751	0.000	
77	 H29	3.416	24.789	-22.456	 H	1	C751	0.000	
78	 H30	2.017	22.813	-22.030	 H	1	C751	0.000	
79	 H31	-1.696	16.072	-28.498	 H	1	C751	0.000	
80	 H32	-1.547	16.121	-26.757	 H	1	C751	0.000	
81	 H33	-1.197	14.629	-27.638	 H	1	C751	0.000	
82	 H34	1.254	19.191	-22.162	 H	1	C751	0.000	
83	 H35	2.076	20.711	-22.382	 H	1	C751	0.000	
84	 H36	2.675	19.547	-21.187	 H	1	C751	0.000	
85	 H41	-0.750	18.681	-21.834	 H	1	C751	0.000	
86	 H42	-3.944	10.618	-26.986	 H	1	C751	0.000	
87	 H43	-3.447	11.346	-25.453	 H	1	C751	0.000	
88	 H44	-5.157	11.429	-25.947	 H	1	C751	0.000	
89	 H45	-2.572	16.105	-24.936	 H	1	C751	0.000	
90	 H46	-1.707	17.339	-23.276	 H	1	C751	0.000	
91	 H47	-1.936	13.628	-21.872	 H	1	C751	0.000	
92	 H48	-3.668	13.755	-22.204	 H	1	C751	0.000	
93	 H49	-3.958	15.518	-20.568	 H	1	C751	0.000	
94	 H50	-3.167	14.150	-19.793	 H	1	C751	0.000	
95	 H51	-2.135	16.361	-19.203	 H	1	C751	0.000	
96	 H52	-0.967	15.262	-19.944	 H	1	C751	0.000	
97	  P1	6.493	7.034	-6.104	P.3	2	POS1	1.166	
98	 O3P	5.202	6.281	-6.321	Du	2	POS1	-0.776	
99	 O4P	6.503	8.178	-5.121	Du	2	POS1	-0.776	
100	 O01	6.845	7.605	-7.390	Os	2	POS1	-0.539	
101	 C10	5.870	8.583	-7.761	C.3	2	POS1	0.334	
102	 C11	6.236	9.179	-9.134	C.3	2	POS1	-0.048	
103	 C12	5.203	10.279	-9.496	C.3	2	POS1	0.035	
104	 C13	5.536	10.986	-10.825	C.3	2	POS1	0.008	
105	 C14	4.450	12.041	-11.140	C.3	2	POS1	0.020	
106	 C15	4.774	12.837	-12.421	C.3	2	POS1	0.114	
107	 N99	3.724	13.828	-12.691	N.3	2	POS1	-0.495	
108	 H11	3.010	14.005	-12.000	 H	2	POS1	0.252	
109	 H12	4.864	12.149	-13.265	 H	2	POS1	0.034	
110	 H13	5.737	13.353	-12.296	 H	2	POS1	0.034	
111	 H14	3.487	11.538	-11.264	 H	2	POS1	0.004	
112	 H15	4.359	12.737	-10.303	 H	2	POS1	0.004	
113	 H16	5.591	10.268	-11.637	 H	2	POS1	-0.004	
114	 H17	6.510	11.481	-10.748	 H	2	POS1	-0.004	
115	 H18	4.213	9.835	-9.557	 H	2	POS1	-0.029	
116	 H19	5.176	11.025	-8.701	 H	2	POS1	-0.029	
117	 H23	7.208	9.652	-8.997	 H	2	POS1	0.022	
118	 H24	6.248	8.421	-9.918	 H	2	POS1	0.022	
119	 H25	5.849	9.377	-7.015	 H	2	POS1	-0.021	
120	 H26	4.888	8.114	-7.819	 H	2	POS1	-0.021	
121	   P	3.063	8.025	-4.135	 P	3	RC2	1.166	
122	 O1P	3.223	8.856	-5.350	O.2	3	RC2	-0.776	
123	 O2P	1.891	7.121	-4.118	 O	3	RC2	-0.776	
124	 C5'	5.621	7.881	-3.587	C.3	3	RC2	0.056	
125	 O5'	4.397	7.181	-3.881	O.3	3	RC2	-0.499	
126	 C4'	6.718	6.889	-3.258	C.3	3	RC2	0.106	
127	 O4'	6.486	6.363	-1.919	O.3	3	RC2	-0.355	
128	 C3'	6.776	5.641	-4.140	C.3	3	RC2	0.202	
129	 O3'	7.398	5.908	-5.390	O.3	3	RC2	-0.525	
130	 C2'	7.566	4.726	-3.208	C.3	3	RC2	0.067	
131	 O2'	8.949	5.085	-3.166	O.3	3	RC2	-0.614	
132	 C1'	6.874	5.000	-1.877	C.3	3	RC2	0.007	
133	  N1	5.666	4.158	-1.647	N.pl3	3	RC2	-0.048	
134	  C2	5.853	2.891	-1.100	C.2	3	RC2	0.754	
135	  O2	7.001	2.521	-0.831	O.2	3	RC2	-0.625	
136	  N3	4.764	2.108	-0.883	N.2	3	RC2	-0.758	
137	  C4	3.536	2.547	-1.188	C.2	3	RC2	0.818	
138	  N4	2.508	1.746	-0.956	N.pl3	3	RC2	-0.953	
139	  C5	3.323	3.847	-1.751	C.2	3	RC2	-0.521	
140	  C6	4.423	4.613	-1.961	C.2	3	RC2	0.005	
141	HO'2	9.266	5.035	-2.261	 H	3	RC2	0.419	
142	  H5	2.324	4.204	-1.999	 H	3	RC2	0.193	
143	  H6	4.309	5.609	-2.388	 H	3	RC2	0.196	
144	 H1'	7.560	4.764	-1.063	 H	3	RC2	0.203	
145	 H3'	5.823	5.221	-4.460	 H	3	RC2	0.062	
146	 H4'	7.638	7.457	-3.394	 H	3	RC2	0.117	
147	 H41	1.571	2.051	-1.176	 H	3	RC2	0.423	
148	 H42	2.661	0.830	-0.559	 H	3	RC2	0.423	
149	H2'1	7.570	3.677	-3.505	 H	3	RC2	0.097	
150	H5'1	5.462	8.536	-2.730	 H	3	RC2	0.068	
151	H5'2	5.916	8.473	-4.453	 H	3	RC2	0.068	
@<TRIPOS>BOND
1 1 3 1
2 1 8 1
3 1 31 1
4 2 6 1
5 2 9 1
6 2 40 1
7 3 5 1
8 3 49 1
9 4 17 1
10 4 20 1
11 4 23 1
12 5 6 1
13 5 50 1
14 6 7 1
15 7 8 1
16 7 10 1
17 8 28 1
18 9 10 1
19 9 12 1
20 10 11 1
21 10 36 1
22 11 51 1
23 11 52 1
24 11 53 1
25 12 41 1
26 12 54 1
27 13 20 1
28 13 39 1
29 13 55 1
30 14 15 1
31 14 19 1
32 14 32 1
33 15 16 1
34 15 56 1
35 16 17 1
36 16 57 1
37 17 18 1
38 18 19 1
39 18 21 1
40 19 35 1
41 20 21 1
42 21 22 1
43 21 37 1
44 22 58 1
45 22 59 1
46 22 60 1
47 23 24 1
48 23 61 1
49 23 62 1
50 24 25 1
51 24 63 1
52 24 64 1
53 25 26 1
54 25 65 1
55 25 66 1
56 26 27 1
57 26 67 1
58 26 68 1
59 27 48 1
60 27 69 1
61 27 70 1
62 28 29 1
63 28 71 1
64 29 30 1
65 29 72 1
66 30 31 1
67 30 73 1
68 31 74 1
69 32 33 1
70 32 75 1
71 33 34 1
72 33 76 1
73 34 35 1
74 34 77 1
75 35 78 1
76 36 79 1
77 36 80 1
78 36 81 1
79 37 82 1
80 37 83 1
81 37 84 1
82 38 39 1
83 38 43 1
84 38 46 1
85 39 85 1
86 40 86 1
87 40 87 1
88 40 88 1
89 41 42 1
90 41 89 1
91 42 43 1
92 42 44 1
93 43 90 1
94 44 45 1
95 44 91 1
96 44 92 1
97 45 46 1
98 45 93 1
99 45 94 1
100 46 95 1
101 46 96 1
102 47 48 1
103 97 98 1
104 97 99 1
105 97 100 1
106 97 129 1
107 100 101 1
108 101 102 1
109 101 119 1
110 101 120 1
111 102 103 1
112 102 117 1
113 102 118 1
114 103 104 1
115 103 115 1
116 103 116 1
117 104 105 1
118 104 113 1
119 104 114 1
120 105 106 1
121 105 111 1
122 105 112 1
123 106 107 1
124 106 109 1
125 106 110 1
126 107 108 1
127 121 122 2
128 121 123 1
129 121 125 1
130 124 125 1
131 124 126 1
132 124 150 1
133 124 151 1
134 126 127 1
135 126 128 1
136 126 146 1
137 127 132 1
138 128 129 1
139 128 130 1
140 128 145 1
141 130 131 1
142 130 132 1
143 130 149 1
144 131 141 1
145 132 133 1
146 132 144 1
147 133 134 1
148 133 140 1
149 134 135 2
150 134 136 1
151 136 137 2
152 137 138 1
153 137 139 1
154 138 147 1
155 138 148 1
156 139 140 2
157 139 142 1
158 140 143 1
159 48 107 1
@<TRIPOS>SUBSTRUCTURE
1	C751	1	GROUP	1 ****	C75
2	POS1	97	GROUP	1 ****	POS
3	RC2	121	GROUP	1 ****	RC
