# created with PyMOL 2.3.3
@<TRIPOS>MOLECULE
C7N_L1R
139 145 3               
SMALL
USER_CHARGES
@<TRIPOS>ATOM
1	  C1	8.316	32.667	-19.526	C.3	1	C7N1	0.000	
2	  N1	6.778	30.044	-16.711	N.3	1	C7N1	0.000	
3	  C2	8.473	33.031	-18.172	C.3	1	C7N1	0.000	
4	  N2	0.892	19.412	-18.790	N.3	1	C7N1	0.000	
5	  C3	7.992	32.190	-17.150	C.3	1	C7N1	0.000	
6	  C4	7.349	31.008	-17.517	C.3	1	C7N1	0.000	
7	  C5	7.193	30.646	-18.848	C.3	1	C7N1	0.000	
8	  C6	7.669	31.469	-19.876	C.3	1	C7N1	0.000	
9	  C7	6.461	29.320	-18.964	C.3	1	C7N1	0.000	
10	  C8	7.358	28.279	-19.661	C.3	1	C7N1	0.000	
11	  C9	5.546	27.836	-16.936	C.3	1	C7N1	0.000	
12	 C10	4.985	26.809	-17.617	C.3	1	C7N1	0.000	
13	 C11	2.047	21.422	-18.190	C.3	1	C7N1	0.000	
14	 C12	-0.431	17.882	-22.395	C.3	1	C7N1	0.000	
15	 C13	-0.735	17.135	-21.245	C.3	1	C7N1	0.000	
16	 C14	-0.319	17.576	-19.976	C.3	1	C7N1	0.000	
17	 C15	0.400	18.783	-19.883	C.3	1	C7N1	0.000	
18	 C16	0.696	19.518	-21.022	C.3	1	C7N1	0.000	
19	 C17	0.292	19.085	-22.293	C.3	1	C7N1	0.000	
20	 C18	1.518	20.596	-19.116	C.3	1	C7N1	0.000	
21	 C19	1.493	20.755	-20.653	C.3	1	C7N1	0.000	
22	 C20	2.903	20.653	-21.294	C.3	1	C7N1	0.000	
23	 C21	6.761	30.171	-15.252	C.3	1	C7N1	0.000	
24	 C22	0.714	18.841	-17.452	C.3	1	C7N1	0.000	
25	 C23	1.829	17.820	-17.156	C.3	1	C7N1	0.000	
26	 C24	1.695	17.214	-15.748	C.3	1	C7N1	0.000	
27	 C25	2.783	16.155	-15.456	C.3	1	C7N1	0.000	
28	 C26	2.629	15.484	-14.063	C.3	1	C7N1	0.000	
29	 C28	5.134	29.525	-19.746	C.3	1	C7N1	0.000	
30	 C29	6.236	29.010	-17.487	C.3	1	C7N1	0.000	
31	 C30	0.778	22.036	-21.149	C.3	1	C7N1	0.000	
32	 C32	3.151	23.579	-17.500	C.3	1	C7N1	0.000	
33	 C33	2.726	22.694	-18.430	C.3	1	C7N1	0.000	
34	 C34	4.274	25.646	-17.086	C.3	1	C7N1	0.000	
35	 C35	3.811	24.690	-17.899	C.3	1	C7N1	0.000	
36	 C36	4.087	25.545	-15.580	C.3	1	C7N1	0.000	
37	 C37	2.900	23.357	-16.006	C.3	1	C7N1	0.000	
38	 C38	2.837	24.698	-15.264	C.3	1	C7N1	0.000	
39	 O91	4.573	14.252	-14.645	 O	1	C7N1	0.000	
40	 C99	3.710	14.479	-13.821	C.3	1	C7N1	0.000	
41	  H1	8.692	33.326	-20.296	 H	1	C7N1	0.000	
42	  H2	8.972	33.965	-17.921	 H	1	C7N1	0.000	
43	  H3	8.115	32.481	-16.110	 H	1	C7N1	0.000	
44	  H4	7.544	31.191	-20.920	 H	1	C7N1	0.000	
45	  H5	8.300	28.172	-19.121	 H	1	C7N1	0.000	
46	  H6	6.880	27.301	-19.726	 H	1	C7N1	0.000	
47	  H7	7.591	28.602	-20.683	 H	1	C7N1	0.000	
48	  H8	5.510	27.797	-15.852	 H	1	C7N1	0.000	
49	  H9	5.031	26.833	-18.699	 H	1	C7N1	0.000	
50	 H10	1.990	21.151	-17.142	 H	1	C7N1	0.000	
51	 H11	-0.754	17.527	-23.370	 H	1	C7N1	0.000	
52	 H12	-1.290	16.199	-21.340	 H	1	C7N1	0.000	
53	 H13	-0.564	16.999	-19.098	 H	1	C7N1	0.000	
54	 H14	0.518	19.662	-23.186	 H	1	C7N1	0.000	
55	 H15	3.545	21.493	-21.009	 H	1	C7N1	0.000	
56	 H16	2.839	20.646	-22.387	 H	1	C7N1	0.000	
57	 H17	3.401	19.733	-20.988	 H	1	C7N1	0.000	
58	 H18	5.930	29.617	-14.819	 H	1	C7N1	0.000	
59	 H19	6.639	31.218	-14.960	 H	1	C7N1	0.000	
60	 H20	7.703	29.799	-14.833	 H	1	C7N1	0.000	
61	 H21	0.707	19.614	-16.682	 H	1	C7N1	0.000	
62	 H22	-0.258	18.339	-17.395	 H	1	C7N1	0.000	
63	 H23	2.802	18.313	-17.253	 H	1	C7N1	0.000	
64	 H24	1.800	17.028	-17.906	 H	1	C7N1	0.000	
65	 H25	1.728	18.007	-14.997	 H	1	C7N1	0.000	
66	 H26	0.727	16.724	-15.659	 H	1	C7N1	0.000	
67	 H27	3.769	16.612	-15.526	 H	1	C7N1	0.000	
68	 H28	2.738	15.379	-16.219	 H	1	C7N1	0.000	
69	 H29	2.690	16.225	-13.276	 H	1	C7N1	0.000	
70	 H30	1.663	14.985	-13.981	 H	1	C7N1	0.000	
71	 H31	5.343	29.911	-20.741	 H	1	C7N1	0.000	
72	 H32	4.573	28.605	-19.854	 H	1	C7N1	0.000	
73	 H33	4.510	30.254	-19.222	 H	1	C7N1	0.000	
74	 H34	-0.148	22.194	-20.588	 H	1	C7N1	0.000	
75	 H35	1.395	22.920	-21.011	 H	1	C7N1	0.000	
76	 H36	0.514	21.949	-22.197	 H	1	C7N1	0.000	
77	 H41	2.935	22.940	-19.464	 H	1	C7N1	0.000	
78	 H42	3.974	24.822	-18.976	 H	1	C7N1	0.000	
79	 H43	4.971	25.089	-15.124	 H	1	C7N1	0.000	
80	 H44	3.942	26.521	-15.119	 H	1	C7N1	0.000	
81	 H45	3.697	22.734	-15.597	 H	1	C7N1	0.000	
82	 H46	1.951	22.844	-15.834	 H	1	C7N1	0.000	
83	 H47	2.771	24.530	-14.189	 H	1	C7N1	0.000	
84	 H48	1.943	25.241	-15.581	 H	1	C7N1	0.000	
85	  P1	6.493	7.034	-6.104	P.3	2	POS1	1.166	
86	 O3P	5.202	6.281	-6.321	Du	2	POS1	-0.776	
87	 O4P	6.503	8.178	-5.121	Du	2	POS1	-0.776	
88	 O01	6.845	7.605	-7.390	Os	2	POS1	-0.539	
89	 C10	5.870	8.583	-7.761	C.3	2	POS1	0.334	
90	 C11	6.236	9.179	-9.134	C.3	2	POS1	-0.048	
91	 C12	5.203	10.279	-9.496	C.3	2	POS1	0.035	
92	 C13	5.536	10.986	-10.825	C.3	2	POS1	0.008	
93	 C14	4.450	12.041	-11.140	C.3	2	POS1	0.020	
94	 C15	4.774	12.837	-12.421	C.3	2	POS1	0.114	
95	 N99	3.724	13.828	-12.691	N.3	2	POS1	-0.495	
96	 H11	3.010	14.005	-12.000	 H	2	POS1	0.252	
97	 H12	4.864	12.149	-13.265	 H	2	POS1	0.034	
98	 H13	5.737	13.353	-12.296	 H	2	POS1	0.034	
99	 H14	3.487	11.538	-11.264	 H	2	POS1	0.004	
100	 H15	4.359	12.737	-10.303	 H	2	POS1	0.004	
101	 H16	5.591	10.268	-11.637	 H	2	POS1	-0.004	
102	 H17	6.510	11.481	-10.748	 H	2	POS1	-0.004	
103	 H18	4.213	9.835	-9.557	 H	2	POS1	-0.029	
104	 H19	5.176	11.025	-8.701	 H	2	POS1	-0.029	
105	 H23	7.208	9.652	-8.997	 H	2	POS1	0.022	
106	 H24	6.248	8.421	-9.918	 H	2	POS1	0.022	
107	 H25	5.849	9.377	-7.015	 H	2	POS1	-0.021	
108	 H26	4.888	8.114	-7.819	 H	2	POS1	-0.021	
109	   P	3.063	8.025	-4.135	 P	3	RC2	1.166	
110	 O1P	3.223	8.856	-5.350	O.2	3	RC2	-0.776	
111	 O2P	1.891	7.121	-4.118	 O	3	RC2	-0.776	
112	 C5'	5.621	7.881	-3.587	C.3	3	RC2	0.056	
113	 O5'	4.397	7.181	-3.881	O.3	3	RC2	-0.499	
114	 C4'	6.718	6.889	-3.258	C.3	3	RC2	0.106	
115	 O4'	6.486	6.363	-1.919	O.3	3	RC2	-0.355	
116	 C3'	6.776	5.641	-4.140	C.3	3	RC2	0.202	
117	 O3'	7.398	5.908	-5.390	O.3	3	RC2	-0.525	
118	 C2'	7.566	4.726	-3.208	C.3	3	RC2	0.067	
119	 O2'	8.949	5.085	-3.166	O.3	3	RC2	-0.614	
120	 C1'	6.874	5.000	-1.877	C.3	3	RC2	0.007	
121	  N1	5.666	4.158	-1.647	N.pl3	3	RC2	-0.048	
122	  C2	5.853	2.891	-1.100	C.2	3	RC2	0.754	
123	  O2	7.001	2.521	-0.831	O.2	3	RC2	-0.625	
124	  N3	4.764	2.108	-0.883	N.2	3	RC2	-0.758	
125	  C4	3.536	2.547	-1.188	C.2	3	RC2	0.818	
126	  N4	2.508	1.746	-0.956	N.pl3	3	RC2	-0.953	
127	  C5	3.323	3.847	-1.751	C.2	3	RC2	-0.521	
128	  C6	4.423	4.613	-1.961	C.2	3	RC2	0.005	
129	HO'2	9.266	5.035	-2.261	 H	3	RC2	0.419	
130	  H5	2.324	4.204	-1.999	 H	3	RC2	0.193	
131	  H6	4.309	5.609	-2.388	 H	3	RC2	0.196	
132	 H1'	7.560	4.764	-1.063	 H	3	RC2	0.203	
133	 H3'	5.823	5.221	-4.460	 H	3	RC2	0.062	
134	 H4'	7.638	7.457	-3.394	 H	3	RC2	0.117	
135	 H41	1.571	2.051	-1.176	 H	3	RC2	0.423	
136	 H42	2.661	0.830	-0.559	 H	3	RC2	0.423	
137	H2'1	7.570	3.677	-3.505	 H	3	RC2	0.097	
138	H5'1	5.462	8.536	-2.730	 H	3	RC2	0.068	
139	H5'2	5.916	8.473	-4.453	 H	3	RC2	0.068	
@<TRIPOS>BOND
1 1 3 1
2 1 8 1
3 1 41 1
4 2 6 1
5 2 23 1
6 2 30 1
7 3 5 1
8 3 42 1
9 4 17 1
10 4 20 1
11 4 24 1
12 5 6 1
13 5 43 1
14 6 7 1
15 7 8 1
16 7 9 1
17 8 44 1
18 9 10 1
19 9 29 1
20 9 30 1
21 10 45 1
22 10 46 1
23 10 47 1
24 11 12 1
25 11 30 1
26 11 48 1
27 12 34 1
28 12 49 1
29 13 20 1
30 13 33 1
31 13 50 1
32 14 15 1
33 14 19 1
34 14 51 1
35 15 16 1
36 15 52 1
37 16 17 1
38 16 53 1
39 17 18 1
40 18 19 1
41 18 21 1
42 19 54 1
43 20 21 1
44 21 22 1
45 21 31 1
46 22 55 1
47 22 56 1
48 22 57 1
49 23 58 1
50 23 59 1
51 23 60 1
52 24 25 1
53 24 61 1
54 24 62 1
55 25 26 1
56 25 63 1
57 25 64 1
58 26 27 1
59 26 65 1
60 26 66 1
61 27 28 1
62 27 67 1
63 27 68 1
64 28 40 1
65 28 69 1
66 28 70 1
67 29 71 1
68 29 72 1
69 29 73 1
70 31 74 1
71 31 75 1
72 31 76 1
73 32 33 1
74 32 35 1
75 32 37 1
76 33 77 1
77 34 35 1
78 34 36 1
79 35 78 1
80 36 38 1
81 36 79 1
82 36 80 1
83 37 38 1
84 37 81 1
85 37 82 1
86 38 83 1
87 38 84 1
88 39 40 1
89 85 86 1
90 85 87 1
91 85 88 1
92 85 117 1
93 88 89 1
94 89 90 1
95 89 107 1
96 89 108 1
97 90 91 1
98 90 105 1
99 90 106 1
100 91 92 1
101 91 103 1
102 91 104 1
103 92 93 1
104 92 101 1
105 92 102 1
106 93 94 1
107 93 99 1
108 93 100 1
109 94 95 1
110 94 97 1
111 94 98 1
112 95 96 1
113 109 110 2
114 109 111 1
115 109 113 1
116 112 113 1
117 112 114 1
118 112 138 1
119 112 139 1
120 114 115 1
121 114 116 1
122 114 134 1
123 115 120 1
124 116 117 1
125 116 118 1
126 116 133 1
127 118 119 1
128 118 120 1
129 118 137 1
130 119 129 1
131 120 121 1
132 120 132 1
133 121 122 1
134 121 128 1
135 122 123 2
136 122 124 1
137 124 125 2
138 125 126 1
139 125 127 1
140 126 135 1
141 126 136 1
142 127 128 2
143 127 130 1
144 128 131 1
145 40 95 1
@<TRIPOS>SUBSTRUCTURE
1	C7N1	1	GROUP	1 ****	C7N
2	POS1	85	GROUP	1 ****	POS
3	RC2	109	GROUP	1 ****	RC
