# created with PyMOL 2.3.3
@<TRIPOS>MOLECULE
T39_L1R
103 107 3               
SMALL
USER_CHARGES
@<TRIPOS>ATOM
1	  P1	6.493	7.034	-6.104	P.3	1	POS1	1.166	
2	 O3P	5.202	6.281	-6.321	Du	1	POS1	-0.776	
3	 O4P	6.503	8.178	-5.121	Du	1	POS1	-0.776	
4	 O01	6.845	7.605	-7.390	Os	1	POS1	-0.539	
5	 C10	5.870	8.583	-7.761	C.3	1	POS1	0.334	
6	 C11	6.236	9.179	-9.134	C.3	1	POS1	-0.048	
7	 C12	5.203	10.279	-9.496	C.3	1	POS1	0.035	
8	 C13	5.536	10.986	-10.825	C.3	1	POS1	0.008	
9	 C14	4.450	12.041	-11.140	C.3	1	POS1	0.020	
10	 C15	4.774	12.837	-12.421	C.3	1	POS1	0.114	
11	 N99	3.724	13.828	-12.691	N.3	1	POS1	-0.495	
12	 H11	3.010	14.005	-12.000	 H	1	POS1	0.252	
13	 H12	4.864	12.149	-13.265	 H	1	POS1	0.034	
14	 H13	5.737	13.353	-12.296	 H	1	POS1	0.034	
15	 H14	3.487	11.538	-11.264	 H	1	POS1	0.004	
16	 H15	4.359	12.737	-10.303	 H	1	POS1	0.004	
17	 H16	5.591	10.268	-11.637	 H	1	POS1	-0.004	
18	 H17	6.510	11.481	-10.748	 H	1	POS1	-0.004	
19	 H18	4.213	9.835	-9.557	 H	1	POS1	-0.029	
20	 H19	5.176	11.025	-8.701	 H	1	POS1	-0.029	
21	 H23	7.208	9.652	-8.997	 H	1	POS1	0.022	
22	 H24	6.248	8.421	-9.918	 H	1	POS1	0.022	
23	 H25	5.849	9.377	-7.015	 H	1	POS1	-0.021	
24	 H26	4.888	8.114	-7.819	 H	1	POS1	-0.021	
25	  C1	2.741	19.975	-19.228	C.3	2	T391	0.000	
26	  N1	2.275	18.202	-16.921	N.3	2	T391	0.000	
27	  C2	3.712	19.907	-18.057	C.3	2	T391	0.000	
28	  C3	3.082	19.442	-16.733	C.3	2	T391	0.000	
29	  O3	4.576	14.252	-14.649	 O	2	T391	0.000	
30	  C4	1.666	17.925	-18.142	C.3	2	T391	0.000	
31	  C5	1.864	18.745	-19.278	C.3	2	T391	0.000	
32	  C6	1.269	18.460	-20.512	C.3	2	T391	0.000	
33	  C7	0.805	16.814	-18.306	C.3	2	T391	0.000	
34	  C8	0.196	16.537	-19.526	C.3	2	T391	0.000	
35	  C9	0.424	17.347	-20.642	C.3	2	T391	0.000	
36	 C10	-0.187	17.039	-21.894	C.3	2	T391	0.000	
37	 C11	-1.328	15.156	-20.739	C.3	2	T391	0.000	
38	 C12	-1.032	15.977	-21.898	C.3	2	T391	0.000	
39	 C13	-0.012	17.813	-23.166	C.3	2	T391	0.000	
40	 C14	1.878	21.253	-19.248	C.3	2	T391	0.000	
41	 C15	2.208	20.534	-16.105	C.3	2	T391	0.000	
42	 C16	4.292	19.236	-15.807	C.3	2	T391	0.000	
43	 C17	1.956	17.440	-15.680	C.3	2	T391	0.000	
44	 C18	2.976	16.326	-15.315	C.3	2	T391	0.000	
45	 C19	2.625	15.489	-14.065	C.3	2	T391	0.000	
46	 O91	-0.654	15.465	-19.624	O.3	2	T391	0.000	
47	 O92	-2.159	14.278	-20.787	 O	2	T391	0.000	
48	 C99	3.711	14.475	-13.814	C.3	2	T391	0.000	
49	  H1	1.512	21.440	-20.267	 H	2	T391	0.000	
50	  H2	1.003	21.168	-18.603	 H	2	T391	0.000	
51	  H3	2.449	22.118	-18.935	 H	2	T391	0.000	
52	  H4	-0.534	17.353	-23.995	 H	2	T391	0.000	
53	  H5	-0.394	18.825	-23.051	 H	2	T391	0.000	
54	  H6	1.043	17.873	-23.412	 H	2	T391	0.000	
55	  H7	1.463	19.106	-21.355	 H	2	T391	0.000	
56	  H8	0.587	16.126	-17.494	 H	2	T391	0.000	
57	  H9	-1.543	15.661	-22.797	 H	2	T391	0.000	
58	 H10	4.483	19.191	-18.341	 H	2	T391	0.000	
59	 H11	4.223	20.866	-17.936	 H	2	T391	0.000	
60	 H12	2.060	20.346	-15.043	 H	2	T391	0.000	
61	 H13	2.670	21.515	-16.200	 H	2	T391	0.000	
62	 H14	1.210	20.562	-16.558	 H	2	T391	0.000	
63	 H15	3.986	19.027	-14.773	 H	2	T391	0.000	
64	 H16	4.917	20.131	-15.780	 H	2	T391	0.000	
65	 H17	4.923	18.416	-16.161	 H	2	T391	0.000	
66	 H18	1.908	18.122	-14.822	 H	2	T391	0.000	
67	 H19	0.958	16.998	-15.730	 H	2	T391	0.000	
68	 H20	3.124	15.651	-16.146	 H	2	T391	0.000	
69	 H21	3.941	16.811	-15.160	 H	2	T391	0.000	
70	 H22	1.670	14.989	-14.196	 H	2	T391	0.000	
71	 H23	2.547	16.120	-13.179	 H	2	T391	0.000	
72	 H24	3.352	20.006	-20.128	 H	2	T391	0.000	
73	   P	3.063	8.025	-4.135	 P	3	RC2	1.166	
74	 O1P	3.223	8.856	-5.350	O.2	3	RC2	-0.776	
75	 O2P	1.891	7.121	-4.118	 O	3	RC2	-0.776	
76	 C5'	5.621	7.881	-3.587	C.3	3	RC2	0.056	
77	 O5'	4.397	7.181	-3.881	O.3	3	RC2	-0.499	
78	 C4'	6.718	6.889	-3.258	C.3	3	RC2	0.106	
79	 O4'	6.486	6.363	-1.919	O.3	3	RC2	-0.355	
80	 C3'	6.776	5.641	-4.140	C.3	3	RC2	0.202	
81	 O3'	7.398	5.908	-5.390	O.3	3	RC2	-0.525	
82	 C2'	7.566	4.726	-3.208	C.3	3	RC2	0.067	
83	 O2'	8.949	5.085	-3.166	O.3	3	RC2	-0.614	
84	 C1'	6.874	5.000	-1.877	C.3	3	RC2	0.007	
85	  N1	5.666	4.158	-1.647	N.pl3	3	RC2	-0.048	
86	  C2	5.853	2.891	-1.100	C.2	3	RC2	0.754	
87	  O2	7.001	2.521	-0.831	O.2	3	RC2	-0.625	
88	  N3	4.764	2.108	-0.883	N.2	3	RC2	-0.758	
89	  C4	3.536	2.547	-1.188	C.2	3	RC2	0.818	
90	  N4	2.508	1.746	-0.956	N.pl3	3	RC2	-0.953	
91	  C5	3.323	3.847	-1.751	C.2	3	RC2	-0.521	
92	  C6	4.423	4.613	-1.961	C.2	3	RC2	0.005	
93	HO'2	9.266	5.035	-2.261	 H	3	RC2	0.419	
94	  H5	2.324	4.204	-1.999	 H	3	RC2	0.193	
95	  H6	4.309	5.609	-2.388	 H	3	RC2	0.196	
96	 H1'	7.560	4.764	-1.063	 H	3	RC2	0.203	
97	 H3'	5.823	5.221	-4.460	 H	3	RC2	0.062	
98	 H4'	7.638	7.457	-3.394	 H	3	RC2	0.117	
99	 H41	1.571	2.051	-1.176	 H	3	RC2	0.423	
100	 H42	2.661	0.830	-0.559	 H	3	RC2	0.423	
101	H2'1	7.570	3.677	-3.505	 H	3	RC2	0.097	
102	H5'1	5.462	8.536	-2.730	 H	3	RC2	0.068	
103	H5'2	5.916	8.473	-4.453	 H	3	RC2	0.068	
@<TRIPOS>BOND
1 1 2 1
2 1 3 1
3 1 4 1
4 1 81 1
5 4 5 1
6 5 6 1
7 5 23 1
8 5 24 1
9 6 7 1
10 6 21 1
11 6 22 1
12 7 8 1
13 7 19 1
14 7 20 1
15 8 9 1
16 8 17 1
17 8 18 1
18 9 10 1
19 9 15 1
20 9 16 1
21 10 11 1
22 10 13 1
23 10 14 1
24 11 12 1
25 25 27 1
26 25 31 1
27 25 40 1
28 25 72 1
29 26 28 1
30 26 30 1
31 26 43 1
32 27 28 1
33 27 58 1
34 27 59 1
35 28 41 1
36 28 42 1
37 29 48 1
38 30 31 1
39 30 33 1
40 31 32 1
41 32 35 1
42 32 55 1
43 33 34 1
44 33 56 1
45 34 35 1
46 34 46 1
47 35 36 1
48 36 38 1
49 36 39 1
50 37 38 1
51 37 46 1
52 37 47 1
53 38 57 1
54 39 52 1
55 39 53 1
56 39 54 1
57 40 49 1
58 40 50 1
59 40 51 1
60 41 60 1
61 41 61 1
62 41 62 1
63 42 63 1
64 42 64 1
65 42 65 1
66 43 44 1
67 43 66 1
68 43 67 1
69 44 45 1
70 44 68 1
71 44 69 1
72 45 48 1
73 45 70 1
74 45 71 1
75 73 74 2
76 73 75 1
77 73 77 1
78 76 77 1
79 76 78 1
80 76 102 1
81 76 103 1
82 78 79 1
83 78 80 1
84 78 98 1
85 79 84 1
86 80 81 1
87 80 82 1
88 80 97 1
89 82 83 1
90 82 84 1
91 82 101 1
92 83 93 1
93 84 85 1
94 84 96 1
95 85 86 1
96 85 92 1
97 86 87 2
98 86 88 1
99 88 89 2
100 89 90 1
101 89 91 1
102 90 99 1
103 90 100 1
104 91 92 2
105 91 94 1
106 92 95 1
107 11 48 1
@<TRIPOS>SUBSTRUCTURE
1	POS1	1	GROUP	1 ****	POS
2	T391	25	GROUP	1 ****	T39
3	RC2	73	GROUP	1 ****	RC
