# created with PyMOL 2.3.3
@<TRIPOS>MOLECULE
T42_L1R
109 113 3               
SMALL
USER_CHARGES
@<TRIPOS>ATOM
1	  P1	6.493	7.034	-6.104	P.3	1	POS1	1.166	
2	 O3P	5.202	6.281	-6.321	Du	1	POS1	-0.776	
3	 O4P	6.503	8.178	-5.121	Du	1	POS1	-0.776	
4	 O01	6.845	7.605	-7.390	Os	1	POS1	-0.539	
5	 C10	5.870	8.583	-7.761	C.3	1	POS1	0.334	
6	 C11	6.236	9.179	-9.134	C.3	1	POS1	-0.048	
7	 C12	5.203	10.279	-9.496	C.3	1	POS1	0.035	
8	 C13	5.536	10.986	-10.825	C.3	1	POS1	0.008	
9	 C14	4.450	12.041	-11.140	C.3	1	POS1	0.020	
10	 C15	4.774	12.837	-12.421	C.3	1	POS1	0.114	
11	 N99	3.724	13.828	-12.691	N.3	1	POS1	-0.495	
12	 H11	3.010	14.005	-12.000	 H	1	POS1	0.252	
13	 H12	4.864	12.149	-13.265	 H	1	POS1	0.034	
14	 H13	5.737	13.353	-12.296	 H	1	POS1	0.034	
15	 H14	3.487	11.538	-11.264	 H	1	POS1	0.004	
16	 H15	4.359	12.737	-10.303	 H	1	POS1	0.004	
17	 H16	5.591	10.268	-11.637	 H	1	POS1	-0.004	
18	 H17	6.510	11.481	-10.748	 H	1	POS1	-0.004	
19	 H18	4.213	9.835	-9.557	 H	1	POS1	-0.029	
20	 H19	5.176	11.025	-8.701	 H	1	POS1	-0.029	
21	 H23	7.208	9.652	-8.997	 H	1	POS1	0.022	
22	 H24	6.248	8.421	-9.918	 H	1	POS1	0.022	
23	 H25	5.849	9.377	-7.015	 H	1	POS1	-0.021	
24	 H26	4.888	8.114	-7.819	 H	1	POS1	-0.021	
25	  C1	1.369	18.901	-19.731	C.3	2	T421	0.000	
26	  N1	1.517	17.698	-17.047	N.3	2	T421	0.000	
27	  C2	2.443	19.291	-18.725	C.3	2	T421	0.000	
28	  C3	2.085	19.051	-17.246	C.3	2	T421	0.000	
29	  O3	-2.655	13.501	-22.953	 O	2	T421	0.000	
30	  C4	0.843	17.042	-18.067	C.3	2	T421	0.000	
31	  O4	4.584	14.242	-14.643	 O	2	T421	0.000	
32	  C5	0.730	17.589	-19.359	C.3	2	T421	0.000	
33	  O5	-2.183	12.165	-19.032	 O	2	T421	0.000	
34	  C6	0.033	16.909	-20.374	C.3	2	T421	0.000	
35	  C7	0.233	15.797	-17.831	C.3	2	T421	0.000	
36	  C8	-0.453	15.136	-18.834	C.3	2	T421	0.000	
37	  C9	-0.563	15.676	-20.102	C.3	2	T421	0.000	
38	 C10	-1.275	14.987	-21.130	C.3	2	T421	0.000	
39	 C11	-1.692	13.201	-19.433	C.3	2	T421	0.000	
40	 C12	-1.778	13.743	-20.790	C.3	2	T421	0.000	
41	 C13	-2.406	12.990	-21.876	C.3	2	T421	0.000	
42	 C14	-3.112	10.898	-22.738	C.3	2	T421	0.000	
43	 C15	-3.234	9.437	-22.297	C.3	2	T421	0.000	
44	 C16	0.314	20.006	-19.984	C.3	2	T421	0.000	
45	 C17	1.082	20.093	-16.730	C.3	2	T421	0.000	
46	 C18	3.403	19.258	-16.468	C.3	2	T421	0.000	
47	 C19	1.549	17.154	-15.656	C.3	2	T421	0.000	
48	 C20	2.676	16.103	-15.473	C.3	2	T421	0.000	
49	 C21	2.617	15.490	-14.056	C.3	2	T421	0.000	
50	 O91	-1.020	13.943	-18.542	O.3	2	T421	0.000	
51	 O92	-2.651	11.690	-21.632	O.3	2	T421	0.000	
52	 C99	3.711	14.483	-13.829	C.3	2	T421	0.000	
53	  H1	-4.086	11.272	-23.059	 H	2	T421	0.000	
54	  H2	-2.396	10.976	-23.561	 H	2	T421	0.000	
55	  H3	-3.514	8.807	-23.147	 H	2	T421	0.000	
56	  H4	-2.276	9.086	-21.898	 H	2	T421	0.000	
57	  H5	-4.002	9.323	-21.532	 H	2	T421	0.000	
58	  H6	-1.360	15.402	-22.128	 H	2	T421	0.000	
59	  H7	-0.050	17.349	-21.370	 H	2	T421	0.000	
60	  H8	-0.408	20.082	-19.176	 H	2	T421	0.000	
61	  H9	-0.236	19.793	-20.899	 H	2	T421	0.000	
62	 H10	0.801	20.981	-20.113	 H	2	T421	0.000	
63	 H11	3.322	18.696	-18.958	 H	2	T421	0.000	
64	 H12	2.738	20.332	-18.879	 H	2	T421	0.000	
65	 H13	0.088	19.924	-17.120	 H	2	T421	0.000	
66	 H14	1.388	21.100	-17.024	 H	2	T421	0.000	
67	 H15	1.021	20.067	-15.646	 H	2	T421	0.000	
68	 H16	4.135	18.508	-16.759	 H	2	T421	0.000	
69	 H17	3.815	20.237	-16.705	 H	2	T421	0.000	
70	 H18	3.260	19.232	-15.397	 H	2	T421	0.000	
71	 H19	2.722	16.277	-13.302	 H	2	T421	0.000	
72	 H20	1.651	15.005	-13.887	 H	2	T421	0.000	
73	 H21	2.579	15.310	-16.217	 H	2	T421	0.000	
74	 H22	3.650	16.573	-15.617	 H	2	T421	0.000	
75	 H23	0.582	16.701	-15.396	 H	2	T421	0.000	
76	 H24	1.690	17.947	-14.918	 H	2	T421	0.000	
77	 H25	1.887	18.767	-20.685	 H	2	T421	0.000	
78	 H26	0.285	15.302	-16.871	 H	2	T421	0.000	
79	   P	3.063	8.025	-4.135	 P	3	RC2	1.166	
80	 O1P	3.223	8.856	-5.350	O.2	3	RC2	-0.776	
81	 O2P	1.891	7.121	-4.118	 O	3	RC2	-0.776	
82	 C5'	5.621	7.881	-3.587	C.3	3	RC2	0.056	
83	 O5'	4.397	7.181	-3.881	O.3	3	RC2	-0.499	
84	 C4'	6.718	6.889	-3.258	C.3	3	RC2	0.106	
85	 O4'	6.486	6.363	-1.919	O.3	3	RC2	-0.355	
86	 C3'	6.776	5.641	-4.140	C.3	3	RC2	0.202	
87	 O3'	7.398	5.908	-5.390	O.3	3	RC2	-0.525	
88	 C2'	7.566	4.726	-3.208	C.3	3	RC2	0.067	
89	 O2'	8.949	5.085	-3.166	O.3	3	RC2	-0.614	
90	 C1'	6.874	5.000	-1.877	C.3	3	RC2	0.007	
91	  N1	5.666	4.158	-1.647	N.pl3	3	RC2	-0.048	
92	  C2	5.853	2.891	-1.100	C.2	3	RC2	0.754	
93	  O2	7.001	2.521	-0.831	O.2	3	RC2	-0.625	
94	  N3	4.764	2.108	-0.883	N.2	3	RC2	-0.758	
95	  C4	3.536	2.547	-1.188	C.2	3	RC2	0.818	
96	  N4	2.508	1.746	-0.956	N.pl3	3	RC2	-0.953	
97	  C5	3.323	3.847	-1.751	C.2	3	RC2	-0.521	
98	  C6	4.423	4.613	-1.961	C.2	3	RC2	0.005	
99	HO'2	9.266	5.035	-2.261	 H	3	RC2	0.419	
100	  H5	2.324	4.204	-1.999	 H	3	RC2	0.193	
101	  H6	4.309	5.609	-2.388	 H	3	RC2	0.196	
102	 H1'	7.560	4.764	-1.063	 H	3	RC2	0.203	
103	 H3'	5.823	5.221	-4.460	 H	3	RC2	0.062	
104	 H4'	7.638	7.457	-3.394	 H	3	RC2	0.117	
105	 H41	1.571	2.051	-1.176	 H	3	RC2	0.423	
106	 H42	2.661	0.830	-0.559	 H	3	RC2	0.423	
107	H2'1	7.570	3.677	-3.505	 H	3	RC2	0.097	
108	H5'1	5.462	8.536	-2.730	 H	3	RC2	0.068	
109	H5'2	5.916	8.473	-4.453	 H	3	RC2	0.068	
@<TRIPOS>BOND
1 1 2 1
2 1 3 1
3 1 4 1
4 1 87 1
5 4 5 1
6 5 6 1
7 5 23 1
8 5 24 1
9 6 7 1
10 6 21 1
11 6 22 1
12 7 8 1
13 7 19 1
14 7 20 1
15 8 9 1
16 8 17 1
17 8 18 1
18 9 10 1
19 9 15 1
20 9 16 1
21 10 11 1
22 10 13 1
23 10 14 1
24 11 12 1
25 25 27 1
26 25 32 1
27 25 44 1
28 25 77 1
29 26 28 1
30 26 30 1
31 26 47 1
32 27 28 1
33 27 63 1
34 27 64 1
35 28 45 1
36 28 46 1
37 29 41 1
38 30 32 1
39 30 35 1
40 31 52 1
41 32 34 1
42 33 39 1
43 34 37 1
44 34 59 1
45 35 36 1
46 35 78 1
47 36 37 1
48 36 50 1
49 37 38 1
50 38 40 1
51 38 58 1
52 39 40 1
53 39 50 1
54 40 41 1
55 41 51 1
56 42 43 1
57 42 51 1
58 42 53 1
59 42 54 1
60 43 55 1
61 43 56 1
62 43 57 1
63 44 60 1
64 44 61 1
65 44 62 1
66 45 65 1
67 45 66 1
68 45 67 1
69 46 68 1
70 46 69 1
71 46 70 1
72 47 48 1
73 47 75 1
74 47 76 1
75 48 49 1
76 48 73 1
77 48 74 1
78 49 52 1
79 49 71 1
80 49 72 1
81 79 80 2
82 79 81 1
83 79 83 1
84 82 83 1
85 82 84 1
86 82 108 1
87 82 109 1
88 84 85 1
89 84 86 1
90 84 104 1
91 85 90 1
92 86 87 1
93 86 88 1
94 86 103 1
95 88 89 1
96 88 90 1
97 88 107 1
98 89 99 1
99 90 91 1
100 90 102 1
101 91 92 1
102 91 98 1
103 92 93 2
104 92 94 1
105 94 95 2
106 95 96 1
107 95 97 1
108 96 105 1
109 96 106 1
110 97 98 2
111 97 100 1
112 98 101 1
113 11 52 1
@<TRIPOS>SUBSTRUCTURE
1	POS1	1	GROUP	1 ****	POS
2	T421	25	GROUP	1 ****	T42
3	RC2	79	GROUP	1 ****	RC
