# created with PyMOL 2.3.3
@<TRIPOS>MOLECULE
T46_L1R
93 97 3                 
SMALL
USER_CHARGES
@<TRIPOS>ATOM
1	  P1	6.493	7.034	-6.104	P.3	1	POS1	1.166	
2	 O3P	5.202	6.281	-6.321	Du	1	POS1	-0.776	
3	 O4P	6.503	8.178	-5.121	Du	1	POS1	-0.776	
4	 O01	6.845	7.605	-7.390	Os	1	POS1	-0.539	
5	 C10	5.870	8.583	-7.761	C.3	1	POS1	0.334	
6	 C11	6.236	9.179	-9.134	C.3	1	POS1	-0.048	
7	 C12	5.203	10.279	-9.496	C.3	1	POS1	0.035	
8	 C13	5.536	10.986	-10.825	C.3	1	POS1	0.008	
9	 C14	4.450	12.041	-11.140	C.3	1	POS1	0.020	
10	 C15	4.774	12.837	-12.421	C.3	1	POS1	0.114	
11	 N99	3.724	13.828	-12.691	N.3	1	POS1	-0.495	
12	 H11	3.010	14.005	-12.000	 H	1	POS1	0.252	
13	 H12	4.864	12.149	-13.265	 H	1	POS1	0.034	
14	 H13	5.737	13.353	-12.296	 H	1	POS1	0.034	
15	 H14	3.487	11.538	-11.264	 H	1	POS1	0.004	
16	 H15	4.359	12.737	-10.303	 H	1	POS1	0.004	
17	 H16	5.591	10.268	-11.637	 H	1	POS1	-0.004	
18	 H17	6.510	11.481	-10.748	 H	1	POS1	-0.004	
19	 H18	4.213	9.835	-9.557	 H	1	POS1	-0.029	
20	 H19	5.176	11.025	-8.701	 H	1	POS1	-0.029	
21	 H23	7.208	9.652	-8.997	 H	1	POS1	0.022	
22	 H24	6.248	8.421	-9.918	 H	1	POS1	0.022	
23	 H25	5.849	9.377	-7.015	 H	1	POS1	-0.021	
24	 H26	4.888	8.114	-7.819	 H	1	POS1	-0.021	
25	  C1	3.360	21.690	-17.335	C.3	2	T461	0.000	
26	  N1	1.883	18.392	-16.497	N.3	2	T461	0.000	
27	  C2	4.010	22.001	-16.138	C.3	2	T461	0.000	
28	  N2	-0.365	15.279	-19.355	N.3	2	T461	0.000	
29	  C3	3.960	21.092	-15.082	C.3	2	T461	0.000	
30	  N3	4.587	21.352	-13.927	N.3	2	T461	0.000	
31	  C4	3.277	19.894	-15.190	C.3	2	T461	0.000	
32	  C5	2.606	19.559	-16.385	C.3	2	T461	0.000	
33	  C6	2.673	20.473	-17.458	C.3	2	T461	0.000	
34	  C7	2.055	20.182	-18.676	C.3	2	T461	0.000	
35	  C8	1.370	18.041	-17.728	C.3	2	T461	0.000	
36	  C9	1.424	18.940	-18.812	C.3	2	T461	0.000	
37	 C10	0.854	18.618	-20.053	C.3	2	T461	0.000	
38	 C11	0.749	16.791	-17.943	C.3	2	T461	0.000	
39	 C12	0.209	16.477	-19.183	C.3	2	T461	0.000	
40	 C13	0.242	17.371	-20.235	C.3	2	T461	0.000	
41	 C14	1.693	17.514	-15.326	C.3	2	T461	0.000	
42	 C15	2.841	16.484	-15.205	C.3	2	T461	0.000	
43	 C16	2.599	15.500	-14.048	C.3	2	T461	0.000	
44	 O91	4.598	14.230	-14.641	 O	2	T461	0.000	
45	 C99	3.715	14.486	-13.840	C.3	2	T461	0.000	
46	  H1	-0.731	15.007	-20.268	 H	2	T461	0.000	
47	  H2	-0.335	14.583	-18.625	 H	2	T461	0.000	
48	  H3	4.485	20.693	-13.154	 H	2	T461	0.000	
49	  H4	5.087	22.221	-13.778	 H	2	T461	0.000	
50	  H5	3.414	22.392	-18.174	 H	2	T461	0.000	
51	  H6	4.555	22.931	-16.036	 H	2	T461	0.000	
52	  H7	2.109	20.872	-19.507	 H	2	T461	0.000	
53	  H8	0.900	19.323	-20.887	 H	2	T461	0.000	
54	  H9	-0.177	17.110	-21.200	 H	2	T461	0.000	
55	 H10	0.689	16.035	-17.178	 H	2	T461	0.000	
56	 H11	3.295	19.244	-14.332	 H	2	T461	0.000	
57	 H12	1.613	18.102	-14.410	 H	2	T461	0.000	
58	 H13	0.739	16.990	-15.386	 H	2	T461	0.000	
59	 H14	2.922	15.921	-16.137	 H	2	T461	0.000	
60	 H15	3.793	17.001	-15.065	 H	2	T461	0.000	
61	 H16	1.691	14.942	-14.239	 H	2	T461	0.000	
62	 H17	2.442	16.052	-13.118	 H	2	T461	0.000	
63	   P	3.063	8.025	-4.135	 P	3	RC2	1.166	
64	 O1P	3.223	8.856	-5.350	O.2	3	RC2	-0.776	
65	 O2P	1.891	7.121	-4.118	 O	3	RC2	-0.776	
66	 C5'	5.621	7.881	-3.587	C.3	3	RC2	0.056	
67	 O5'	4.397	7.181	-3.881	O.3	3	RC2	-0.499	
68	 C4'	6.718	6.889	-3.258	C.3	3	RC2	0.106	
69	 O4'	6.486	6.363	-1.919	O.3	3	RC2	-0.355	
70	 C3'	6.776	5.641	-4.140	C.3	3	RC2	0.202	
71	 O3'	7.398	5.908	-5.390	O.3	3	RC2	-0.525	
72	 C2'	7.566	4.726	-3.208	C.3	3	RC2	0.067	
73	 O2'	8.949	5.085	-3.166	O.3	3	RC2	-0.614	
74	 C1'	6.874	5.000	-1.877	C.3	3	RC2	0.007	
75	  N1	5.666	4.158	-1.647	N.pl3	3	RC2	-0.048	
76	  C2	5.853	2.891	-1.100	C.2	3	RC2	0.754	
77	  O2	7.001	2.521	-0.831	O.2	3	RC2	-0.625	
78	  N3	4.764	2.108	-0.883	N.2	3	RC2	-0.758	
79	  C4	3.536	2.547	-1.188	C.2	3	RC2	0.818	
80	  N4	2.508	1.746	-0.956	N.pl3	3	RC2	-0.953	
81	  C5	3.323	3.847	-1.751	C.2	3	RC2	-0.521	
82	  C6	4.423	4.613	-1.961	C.2	3	RC2	0.005	
83	HO'2	9.266	5.035	-2.261	 H	3	RC2	0.419	
84	  H5	2.324	4.204	-1.999	 H	3	RC2	0.193	
85	  H6	4.309	5.609	-2.388	 H	3	RC2	0.196	
86	 H1'	7.560	4.764	-1.063	 H	3	RC2	0.203	
87	 H3'	5.823	5.221	-4.460	 H	3	RC2	0.062	
88	 H4'	7.638	7.457	-3.394	 H	3	RC2	0.117	
89	 H41	1.571	2.051	-1.176	 H	3	RC2	0.423	
90	 H42	2.661	0.830	-0.559	 H	3	RC2	0.423	
91	H2'1	7.570	3.677	-3.505	 H	3	RC2	0.097	
92	H5'1	5.462	8.536	-2.730	 H	3	RC2	0.068	
93	H5'2	5.916	8.473	-4.453	 H	3	RC2	0.068	
@<TRIPOS>BOND
1 1 2 1
2 1 3 1
3 1 4 1
4 1 71 1
5 4 5 1
6 5 6 1
7 5 23 1
8 5 24 1
9 6 7 1
10 6 21 1
11 6 22 1
12 7 8 1
13 7 19 1
14 7 20 1
15 8 9 1
16 8 17 1
17 8 18 1
18 9 10 1
19 9 15 1
20 9 16 1
21 10 11 1
22 10 13 1
23 10 14 1
24 11 12 1
25 25 27 1
26 25 33 1
27 25 50 1
28 26 32 1
29 26 35 1
30 26 41 1
31 27 29 1
32 27 51 1
33 28 39 1
34 28 46 1
35 28 47 1
36 29 30 1
37 29 31 1
38 30 48 1
39 30 49 1
40 31 32 1
41 31 56 1
42 32 33 1
43 33 34 1
44 34 36 1
45 34 52 1
46 35 36 1
47 35 38 1
48 36 37 1
49 37 40 1
50 37 53 1
51 38 39 1
52 38 55 1
53 39 40 1
54 40 54 1
55 41 42 1
56 41 57 1
57 41 58 1
58 42 43 1
59 42 59 1
60 42 60 1
61 43 45 1
62 43 61 1
63 43 62 1
64 44 45 1
65 63 64 2
66 63 65 1
67 63 67 1
68 66 67 1
69 66 68 1
70 66 92 1
71 66 93 1
72 68 69 1
73 68 70 1
74 68 88 1
75 69 74 1
76 70 71 1
77 70 72 1
78 70 87 1
79 72 73 1
80 72 74 1
81 72 91 1
82 73 83 1
83 74 75 1
84 74 86 1
85 75 76 1
86 75 82 1
87 76 77 2
88 76 78 1
89 78 79 2
90 79 80 1
91 79 81 1
92 80 89 1
93 80 90 1
94 81 82 2
95 81 84 1
96 82 85 1
97 11 45 1
@<TRIPOS>SUBSTRUCTURE
1	POS1	1	GROUP	1 ****	POS
2	T461	25	GROUP	1 ****	T46
3	RC2	63	GROUP	1 ****	RC
