# created with PyMOL 2.3.3
@<TRIPOS>MOLECULE
T48_L2R
99 104 3                
SMALL
USER_CHARGES
@<TRIPOS>ATOM
1	  P1	6.493	7.034	-6.104	P.3	1	POS1	1.166	
2	 O3P	5.202	6.281	-6.321	Du	1	POS1	-0.776	
3	 O4P	6.503	8.178	-5.121	Du	1	POS1	-0.776	
4	 O01	6.845	7.605	-7.390	Os	1	POS1	-0.539	
5	 C10	5.870	8.583	-7.761	C.3	1	POS1	0.334	
6	 C11	6.236	9.179	-9.134	C.3	1	POS1	-0.048	
7	 C12	5.203	10.279	-9.496	C.3	1	POS1	0.035	
8	 C13	5.536	10.986	-10.825	C.3	1	POS1	0.008	
9	 C14	4.450	12.041	-11.140	C.3	1	POS1	0.020	
10	 C15	4.774	12.837	-12.421	C.3	1	POS1	0.114	
11	 N99	3.724	13.828	-12.691	N.3	1	POS1	-0.495	
12	 H11	3.010	14.005	-12.000	 H	1	POS1	0.252	
13	 H12	4.864	12.149	-13.265	 H	1	POS1	0.034	
14	 H13	5.737	13.353	-12.296	 H	1	POS1	0.034	
15	 H14	3.487	11.538	-11.264	 H	1	POS1	0.004	
16	 H15	4.359	12.737	-10.303	 H	1	POS1	0.004	
17	 H16	5.591	10.268	-11.637	 H	1	POS1	-0.004	
18	 H17	6.510	11.481	-10.748	 H	1	POS1	-0.004	
19	 H18	4.213	9.835	-9.557	 H	1	POS1	-0.029	
20	 H19	5.176	11.025	-8.701	 H	1	POS1	-0.029	
21	 H23	7.208	9.652	-8.997	 H	1	POS1	0.022	
22	 H24	6.248	8.421	-9.918	 H	1	POS1	0.022	
23	 H25	5.849	9.377	-7.015	 H	1	POS1	-0.021	
24	 H26	4.888	8.114	-7.819	 H	1	POS1	-0.021	
25	  C1	4.079	14.186	-19.471	C.3	2	T481	0.000	
26	  S1	5.100	14.153	-20.899	S.3	2	T481	0.000	
27	  C2	3.021	13.267	-19.370	C.3	2	T481	0.000	
28	  N2	7.907	19.516	-16.256	N.3	2	T481	0.000	
29	  S2	8.064	17.503	-18.465	S.3	2	T481	0.000	
30	  C3	2.120	13.330	-18.310	C.3	2	T481	0.000	
31	  N3	2.816	12.295	-20.277	N.3	2	T481	0.000	
32	  O3	5.840	15.365	-21.040	 O	2	T481	0.000	
33	  C4	2.262	14.288	-17.321	C.3	2	T481	0.000	
34	  O4	8.971	17.068	-17.435	 O	2	T481	0.000	
35	  C5	3.351	15.180	-17.375	C.3	2	T481	0.000	
36	  O5	7.912	16.512	-19.468	 O	2	T481	0.000	
37	  C6	4.281	15.122	-18.432	C.3	2	T481	0.000	
38	  O6	8.706	18.757	-18.742	 O	2	T481	0.000	
39	  C7	4.623	17.008	-16.374	C.3	2	T481	0.000	
40	  O7	5.882	13.035	-20.459	 O	2	T481	0.000	
41	  C8	5.589	16.893	-17.392	C.3	2	T481	0.000	
42	  O8	5.391	15.968	-18.414	O.3	2	T481	0.000	
43	  C9	6.733	17.713	-17.342	C.3	2	T481	0.000	
44	 C10	4.764	17.975	-15.354	C.3	2	T481	0.000	
45	 C11	5.869	18.824	-15.361	C.3	2	T481	0.000	
46	 C12	6.849	18.677	-16.338	C.3	2	T481	0.000	
47	 C15	3.509	16.141	-16.342	C.3	2	T481	0.000	
48	 C16	2.630	15.479	-14.056	C.3	2	T481	0.000	
49	 C17	1.639	15.695	-13.071	C.3	2	T481	0.000	
50	 C18	0.600	16.623	-13.264	C.3	2	T481	0.000	
51	 C19	0.513	17.348	-14.452	C.3	2	T481	0.000	
52	 C20	1.474	17.156	-15.446	C.3	2	T481	0.000	
53	 C21	2.542	16.246	-15.258	C.3	2	T481	0.000	
54	 O91	4.578	14.246	-14.641	 O	2	T481	0.000	
55	 O92	4.389	13.577	-22.002	 O	2	T481	0.000	
56	 C99	3.703	14.491	-13.833	C.3	2	T481	0.000	
57	  H1	4.027	18.107	-14.565	 H	2	T481	0.000	
58	  H2	1.541	14.319	-16.508	 H	2	T481	0.000	
59	  H7	1.302	12.618	-18.261	 H	2	T481	0.000	
60	  H8	5.976	19.582	-14.586	 H	2	T481	0.000	
61	  H9	1.659	15.156	-12.128	 H	2	T481	0.000	
62	 H10	-0.147	16.772	-12.484	 H	2	T481	0.000	
63	 H11	-0.299	18.066	-14.601	 H	2	T481	0.000	
64	 H12	1.416	17.737	-16.370	 H	2	T481	0.000	
65	 H13	8.603	19.430	-17.004	 H	2	T481	0.000	
66	 H14	7.964	20.259	-15.581	 H	2	T481	0.000	
67	 H15	2.083	11.593	-20.169	 H	2	T481	0.000	
68	 H16	3.473	12.235	-21.045	 H	2	T481	0.000	
69	   P	3.063	8.025	-4.135	 P	3	RC2	1.166	
70	 O1P	3.223	8.856	-5.350	O.2	3	RC2	-0.776	
71	 O2P	1.891	7.121	-4.118	 O	3	RC2	-0.776	
72	 C5'	5.621	7.881	-3.587	C.3	3	RC2	0.056	
73	 O5'	4.397	7.181	-3.881	O.3	3	RC2	-0.499	
74	 C4'	6.718	6.889	-3.258	C.3	3	RC2	0.106	
75	 O4'	6.486	6.363	-1.919	O.3	3	RC2	-0.355	
76	 C3'	6.776	5.641	-4.140	C.3	3	RC2	0.202	
77	 O3'	7.398	5.908	-5.390	O.3	3	RC2	-0.525	
78	 C2'	7.566	4.726	-3.208	C.3	3	RC2	0.067	
79	 O2'	8.949	5.085	-3.166	O.3	3	RC2	-0.614	
80	 C1'	6.874	5.000	-1.877	C.3	3	RC2	0.007	
81	  N1	5.666	4.158	-1.647	N.pl3	3	RC2	-0.048	
82	  C2	5.853	2.891	-1.100	C.2	3	RC2	0.754	
83	  O2	7.001	2.521	-0.831	O.2	3	RC2	-0.625	
84	  N3	4.764	2.108	-0.883	N.2	3	RC2	-0.758	
85	  C4	3.536	2.547	-1.188	C.2	3	RC2	0.818	
86	  N4	2.508	1.746	-0.956	N.pl3	3	RC2	-0.953	
87	  C5	3.323	3.847	-1.751	C.2	3	RC2	-0.521	
88	  C6	4.423	4.613	-1.961	C.2	3	RC2	0.005	
89	HO'2	9.266	5.035	-2.261	 H	3	RC2	0.419	
90	  H5	2.324	4.204	-1.999	 H	3	RC2	0.193	
91	  H6	4.309	5.609	-2.388	 H	3	RC2	0.196	
92	 H1'	7.560	4.764	-1.063	 H	3	RC2	0.203	
93	 H3'	5.823	5.221	-4.460	 H	3	RC2	0.062	
94	 H4'	7.638	7.457	-3.394	 H	3	RC2	0.117	
95	 H41	1.571	2.051	-1.176	 H	3	RC2	0.423	
96	 H42	2.661	0.830	-0.559	 H	3	RC2	0.423	
97	H2'1	7.570	3.677	-3.505	 H	3	RC2	0.097	
98	H5'1	5.462	8.536	-2.730	 H	3	RC2	0.068	
99	H5'2	5.916	8.473	-4.453	 H	3	RC2	0.068	
@<TRIPOS>BOND
1 1 2 1
2 1 3 1
3 1 4 1
4 1 77 1
5 4 5 1
6 5 6 1
7 5 23 1
8 5 24 1
9 6 7 1
10 6 21 1
11 6 22 1
12 7 8 1
13 7 19 1
14 7 20 1
15 8 9 1
16 8 17 1
17 8 18 1
18 9 10 1
19 9 15 1
20 9 16 1
21 10 11 1
22 10 13 1
23 10 14 1
24 11 12 1
25 25 26 1
26 25 27 1
27 25 37 1
28 26 32 1
29 26 40 1
30 26 55 1
31 27 30 1
32 27 31 1
33 28 46 1
34 28 65 1
35 28 66 1
36 29 34 1
37 29 36 1
38 29 38 1
39 29 43 1
40 30 33 1
41 30 59 1
42 31 67 1
43 31 68 1
44 33 35 1
45 33 58 1
46 35 37 1
47 35 47 1
48 37 42 1
49 39 41 1
50 39 44 1
51 39 47 1
52 41 42 1
53 41 43 1
54 43 46 1
55 44 45 1
56 44 57 1
57 45 46 1
58 45 60 1
59 47 53 1
60 48 49 1
61 48 53 1
62 48 56 1
63 49 50 1
64 49 61 1
65 50 51 1
66 50 62 1
67 51 52 1
68 51 63 1
69 52 53 1
70 52 64 1
71 54 56 1
72 69 70 2
73 69 71 1
74 69 73 1
75 72 73 1
76 72 74 1
77 72 98 1
78 72 99 1
79 74 75 1
80 74 76 1
81 74 94 1
82 75 80 1
83 76 77 1
84 76 78 1
85 76 93 1
86 78 79 1
87 78 80 1
88 78 97 1
89 79 89 1
90 80 81 1
91 80 92 1
92 81 82 1
93 81 88 1
94 82 83 2
95 82 84 1
96 84 85 2
97 85 86 1
98 85 87 1
99 86 95 1
100 86 96 1
101 87 88 2
102 87 90 1
103 88 91 1
104 11 56 1
@<TRIPOS>SUBSTRUCTURE
1	POS1	1	GROUP	1 ****	POS
2	T481	25	GROUP	1 ****	T48
3	RC2	69	GROUP	1 ****	RC
