# created with PyMOL 2.3.3
@<TRIPOS>MOLECULE
T49_L1R
105 109 3               
SMALL
USER_CHARGES
@<TRIPOS>ATOM
1	  P1	6.493	7.034	-6.104	P.3	1	POS1	1.166	
2	 O3P	5.202	6.281	-6.321	Du	1	POS1	-0.776	
3	 O4P	6.503	8.178	-5.121	Du	1	POS1	-0.776	
4	 O01	6.845	7.605	-7.390	Os	1	POS1	-0.539	
5	 C10	5.870	8.583	-7.761	C.3	1	POS1	0.334	
6	 C11	6.236	9.179	-9.134	C.3	1	POS1	-0.048	
7	 C12	5.203	10.279	-9.496	C.3	1	POS1	0.035	
8	 C13	5.536	10.986	-10.825	C.3	1	POS1	0.008	
9	 C14	4.450	12.041	-11.140	C.3	1	POS1	0.020	
10	 C15	4.774	12.837	-12.421	C.3	1	POS1	0.114	
11	 N99	3.724	13.828	-12.691	N.3	1	POS1	-0.495	
12	 H11	3.010	14.005	-12.000	 H	1	POS1	0.252	
13	 H12	4.864	12.149	-13.265	 H	1	POS1	0.034	
14	 H13	5.737	13.353	-12.296	 H	1	POS1	0.034	
15	 H14	3.487	11.538	-11.264	 H	1	POS1	0.004	
16	 H15	4.359	12.737	-10.303	 H	1	POS1	0.004	
17	 H16	5.591	10.268	-11.637	 H	1	POS1	-0.004	
18	 H17	6.510	11.481	-10.748	 H	1	POS1	-0.004	
19	 H18	4.213	9.835	-9.557	 H	1	POS1	-0.029	
20	 H19	5.176	11.025	-8.701	 H	1	POS1	-0.029	
21	 H23	7.208	9.652	-8.997	 H	1	POS1	0.022	
22	 H24	6.248	8.421	-9.918	 H	1	POS1	0.022	
23	 H25	5.849	9.377	-7.015	 H	1	POS1	-0.021	
24	 H26	4.888	8.114	-7.819	 H	1	POS1	-0.021	
25	  C1	0.680	18.776	-20.003	C.3	2	T491	0.000	
26	  N1	1.906	18.420	-16.526	N.3	2	T491	0.000	
27	  C2	0.099	17.520	-20.214	C.3	2	T491	0.000	
28	  N2	4.834	21.328	-13.958	N.3	2	T491	0.000	
29	  C3	0.139	16.524	-19.219	C.3	2	T491	0.000	
30	  N3	-0.424	15.275	-19.442	N.3	2	T491	0.000	
31	  C4	0.774	16.833	-17.990	C.3	2	T491	0.000	
32	  C5	1.356	18.092	-17.757	C.3	2	T491	0.000	
33	  C6	1.309	19.055	-18.782	C.3	2	T491	0.000	
34	  C7	1.918	20.291	-18.626	C.3	2	T491	0.000	
35	  C8	2.636	19.584	-16.415	C.3	2	T491	0.000	
36	  C9	2.610	20.547	-17.434	C.3	2	T491	0.000	
37	 C10	3.291	21.763	-17.308	C.3	2	T491	0.000	
38	 C11	3.391	19.868	-15.248	C.3	2	T491	0.000	
39	 C12	4.088	21.068	-15.098	C.3	2	T491	0.000	
40	 C13	4.029	22.024	-16.145	C.3	2	T491	0.000	
41	 C14	-0.368	14.189	-18.458	C.3	2	T491	0.000	
42	 C15	-1.162	14.956	-20.688	C.3	2	T491	0.000	
43	 C16	4.925	20.354	-12.849	C.3	2	T491	0.000	
44	 C17	5.612	22.558	-13.771	C.3	2	T491	0.000	
45	 C18	1.721	17.530	-15.349	C.3	2	T491	0.000	
46	 C19	2.845	16.480	-15.224	C.3	2	T491	0.000	
47	 C20	2.603	15.497	-14.047	C.3	2	T491	0.000	
48	 O91	4.594	14.231	-14.638	 O	2	T491	0.000	
49	 C99	3.715	14.488	-13.844	C.3	2	T491	0.000	
50	  H1	5.401	19.427	-13.203	 H	2	T491	0.000	
51	  H2	5.525	20.745	-12.023	 H	2	T491	0.000	
52	  H3	3.929	20.123	-12.471	 H	2	T491	0.000	
53	  H4	6.503	22.540	-14.401	 H	2	T491	0.000	
54	  H5	5.933	22.680	-12.725	 H	2	T491	0.000	
55	  H6	5.009	23.434	-14.028	 H	2	T491	0.000	
56	  H7	-1.609	13.964	-20.647	 H	2	T491	0.000	
57	  H8	-1.968	15.678	-20.839	 H	2	T491	0.000	
58	  H9	-0.485	14.996	-21.547	 H	2	T491	0.000	
59	 H10	0.672	13.975	-18.186	 H	2	T491	0.000	
60	 H11	-0.808	13.259	-18.835	 H	2	T491	0.000	
61	 H12	-0.918	14.473	-17.549	 H	2	T491	0.000	
62	 H13	-0.383	17.340	-21.164	 H	2	T491	0.000	
63	 H14	0.642	19.527	-20.789	 H	2	T491	0.000	
64	 H15	1.891	21.029	-19.429	 H	2	T491	0.000	
65	 H16	3.264	22.506	-18.099	 H	2	T491	0.000	
66	 H17	4.553	22.966	-16.067	 H	2	T491	0.000	
67	 H18	3.436	19.144	-14.444	 H	2	T491	0.000	
68	 H19	0.801	16.061	-17.240	 H	2	T491	0.000	
69	 H20	1.680	14.951	-14.239	 H	2	T491	0.000	
70	 H21	2.449	16.072	-13.133	 H	2	T491	0.000	
71	 H22	2.900	15.902	-16.148	 H	2	T491	0.000	
72	 H23	3.817	16.963	-15.105	 H	2	T491	0.000	
73	 H24	1.655	18.123	-14.442	 H	2	T491	0.000	
74	 H25	0.754	17.031	-15.415	 H	2	T491	0.000	
75	   P	3.063	8.025	-4.135	 P	3	RC2	1.166	
76	 O1P	3.223	8.856	-5.350	O.2	3	RC2	-0.776	
77	 O2P	1.891	7.121	-4.118	 O	3	RC2	-0.776	
78	 C5'	5.621	7.881	-3.587	C.3	3	RC2	0.056	
79	 O5'	4.397	7.181	-3.881	O.3	3	RC2	-0.499	
80	 C4'	6.718	6.889	-3.258	C.3	3	RC2	0.106	
81	 O4'	6.486	6.363	-1.919	O.3	3	RC2	-0.355	
82	 C3'	6.776	5.641	-4.140	C.3	3	RC2	0.202	
83	 O3'	7.398	5.908	-5.390	O.3	3	RC2	-0.525	
84	 C2'	7.566	4.726	-3.208	C.3	3	RC2	0.067	
85	 O2'	8.949	5.085	-3.166	O.3	3	RC2	-0.614	
86	 C1'	6.874	5.000	-1.877	C.3	3	RC2	0.007	
87	  N1	5.666	4.158	-1.647	N.pl3	3	RC2	-0.048	
88	  C2	5.853	2.891	-1.100	C.2	3	RC2	0.754	
89	  O2	7.001	2.521	-0.831	O.2	3	RC2	-0.625	
90	  N3	4.764	2.108	-0.883	N.2	3	RC2	-0.758	
91	  C4	3.536	2.547	-1.188	C.2	3	RC2	0.818	
92	  N4	2.508	1.746	-0.956	N.pl3	3	RC2	-0.953	
93	  C5	3.323	3.847	-1.751	C.2	3	RC2	-0.521	
94	  C6	4.423	4.613	-1.961	C.2	3	RC2	0.005	
95	HO'2	9.266	5.035	-2.261	 H	3	RC2	0.419	
96	  H5	2.324	4.204	-1.999	 H	3	RC2	0.193	
97	  H6	4.309	5.609	-2.388	 H	3	RC2	0.196	
98	 H1'	7.560	4.764	-1.063	 H	3	RC2	0.203	
99	 H3'	5.823	5.221	-4.460	 H	3	RC2	0.062	
100	 H4'	7.638	7.457	-3.394	 H	3	RC2	0.117	
101	 H41	1.571	2.051	-1.176	 H	3	RC2	0.423	
102	 H42	2.661	0.830	-0.559	 H	3	RC2	0.423	
103	H2'1	7.570	3.677	-3.505	 H	3	RC2	0.097	
104	H5'1	5.462	8.536	-2.730	 H	3	RC2	0.068	
105	H5'2	5.916	8.473	-4.453	 H	3	RC2	0.068	
@<TRIPOS>BOND
1 1 2 1
2 1 3 1
3 1 4 1
4 1 83 1
5 4 5 1
6 5 6 1
7 5 23 1
8 5 24 1
9 6 7 1
10 6 21 1
11 6 22 1
12 7 8 1
13 7 19 1
14 7 20 1
15 8 9 1
16 8 17 1
17 8 18 1
18 9 10 1
19 9 15 1
20 9 16 1
21 10 11 1
22 10 13 1
23 10 14 1
24 11 12 1
25 25 27 1
26 25 33 1
27 25 63 1
28 26 32 1
29 26 35 1
30 26 45 1
31 27 29 1
32 27 62 1
33 28 39 1
34 28 43 1
35 28 44 1
36 29 30 1
37 29 31 1
38 30 41 1
39 30 42 1
40 31 32 1
41 31 68 1
42 32 33 1
43 33 34 1
44 34 36 1
45 34 64 1
46 35 36 1
47 35 38 1
48 36 37 1
49 37 40 1
50 37 65 1
51 38 39 1
52 38 67 1
53 39 40 1
54 40 66 1
55 41 59 1
56 41 60 1
57 41 61 1
58 42 56 1
59 42 57 1
60 42 58 1
61 43 50 1
62 43 51 1
63 43 52 1
64 44 53 1
65 44 54 1
66 44 55 1
67 45 46 1
68 45 73 1
69 45 74 1
70 46 47 1
71 46 71 1
72 46 72 1
73 47 49 1
74 47 69 1
75 47 70 1
76 48 49 1
77 75 76 2
78 75 77 1
79 75 79 1
80 78 79 1
81 78 80 1
82 78 104 1
83 78 105 1
84 80 81 1
85 80 82 1
86 80 100 1
87 81 86 1
88 82 83 1
89 82 84 1
90 82 99 1
91 84 85 1
92 84 86 1
93 84 103 1
94 85 95 1
95 86 87 1
96 86 98 1
97 87 88 1
98 87 94 1
99 88 89 2
100 88 90 1
101 90 91 2
102 91 92 1
103 91 93 1
104 92 101 1
105 92 102 1
106 93 94 2
107 93 96 1
108 94 97 1
109 11 49 1
@<TRIPOS>SUBSTRUCTURE
1	POS1	1	GROUP	1 ****	POS
2	T491	25	GROUP	1 ****	T49
3	RC2	75	GROUP	1 ****	RC
