# created with PyMOL 2.3.3
@<TRIPOS>MOLECULE
T51_L2R
105 110 3               
SMALL
USER_CHARGES
@<TRIPOS>ATOM
1	  P1	6.493	7.034	-6.104	P.3	1	POS1	1.166	
2	 O3P	5.202	6.281	-6.321	Du	1	POS1	-0.776	
3	 O4P	6.503	8.178	-5.121	Du	1	POS1	-0.776	
4	 O01	6.845	7.605	-7.390	Os	1	POS1	-0.539	
5	 C10	5.870	8.583	-7.761	C.3	1	POS1	0.334	
6	 C11	6.236	9.179	-9.134	C.3	1	POS1	-0.048	
7	 C12	5.203	10.279	-9.496	C.3	1	POS1	0.035	
8	 C13	5.536	10.986	-10.825	C.3	1	POS1	0.008	
9	 C14	4.450	12.041	-11.140	C.3	1	POS1	0.020	
10	 C15	4.774	12.837	-12.421	C.3	1	POS1	0.114	
11	 N99	3.724	13.828	-12.691	N.3	1	POS1	-0.495	
12	 H11	3.010	14.005	-12.000	 H	1	POS1	0.252	
13	 H12	4.864	12.149	-13.265	 H	1	POS1	0.034	
14	 H13	5.737	13.353	-12.296	 H	1	POS1	0.034	
15	 H14	3.487	11.538	-11.264	 H	1	POS1	0.004	
16	 H15	4.359	12.737	-10.303	 H	1	POS1	0.004	
17	 H16	5.591	10.268	-11.637	 H	1	POS1	-0.004	
18	 H17	6.510	11.481	-10.748	 H	1	POS1	-0.004	
19	 H18	4.213	9.835	-9.557	 H	1	POS1	-0.029	
20	 H19	5.176	11.025	-8.701	 H	1	POS1	-0.029	
21	 H23	7.208	9.652	-8.997	 H	1	POS1	0.022	
22	 H24	6.248	8.421	-9.918	 H	1	POS1	0.022	
23	 H25	5.849	9.377	-7.015	 H	1	POS1	-0.021	
24	 H26	4.888	8.114	-7.819	 H	1	POS1	-0.021	
25	  C1	4.098	14.218	-19.494	C.3	2	T511	0.000	
26	  S1	5.234	14.096	-20.834	S.3	2	T511	0.000	
27	  C2	2.954	13.389	-19.469	C.3	2	T511	0.000	
28	  N2	8.102	19.388	-16.254	N.3	2	T511	0.000	
29	  S2	7.947	17.605	-18.690	S.3	2	T511	0.000	
30	  C3	2.027	13.498	-18.424	C.3	2	T511	0.000	
31	  N3	2.756	12.468	-20.464	N.3	2	T511	0.000	
32	  O3	6.415	14.869	-20.702	 O	2	T511	0.000	
33	  C4	2.222	14.413	-17.399	C.3	2	T511	0.000	
34	  O4	7.110	17.641	-19.844	 O	2	T511	0.000	
35	  C5	3.354	15.232	-17.404	C.3	2	T511	0.000	
36	  O5	9.011	18.553	-18.614	 O	2	T511	0.000	
37	  C6	4.305	15.142	-18.445	C.3	2	T511	0.000	
38	  O6	8.321	16.234	-18.452	 O	2	T511	0.000	
39	  C7	4.712	16.967	-16.334	C.3	2	T511	0.000	
40	  O7	5.334	12.710	-21.186	 O	2	T511	0.000	
41	  C8	5.648	16.878	-17.383	C.3	2	T511	0.000	
42	  O8	5.422	15.972	-18.411	O.3	2	T511	0.000	
43	  C9	6.794	17.706	-17.366	C.3	2	T511	0.000	
44	 C10	4.921	17.864	-15.274	C.3	2	T511	0.000	
45	 C11	6.053	18.664	-15.254	C.3	2	T511	0.000	
46	 C12	6.995	18.603	-16.294	C.3	2	T511	0.000	
47	 C15	3.560	16.141	-16.339	C.3	2	T511	0.000	
48	 C16	2.633	15.481	-14.062	C.3	2	T511	0.000	
49	 C17	1.632	15.742	-13.089	C.3	2	T511	0.000	
50	 C18	0.625	16.694	-13.313	C.3	2	T511	0.000	
51	 C19	0.580	17.418	-14.501	C.3	2	T511	0.000	
52	 C20	1.562	17.203	-15.465	C.3	2	T511	0.000	
53	 C21	2.583	16.249	-15.266	C.3	2	T511	0.000	
54	 C22	8.514	20.292	-15.201	C.3	2	T511	0.000	
55	 C23	1.742	11.441	-20.544	C.3	2	T511	0.000	
56	 O91	4.574	14.252	-14.645	 O	2	T511	0.000	
57	 O92	4.294	14.505	-21.832	 O	2	T511	0.000	
58	 C99	3.705	14.484	-13.822	C.3	2	T511	0.000	
59	  F1	8.624	19.618	-14.035	 F	2	T511	0.000	
60	  F2	7.615	21.286	-15.080	 F	2	T511	0.000	
61	  F3	9.709	20.800	-15.537	 F	2	T511	0.000	
62	  F4	1.824	10.642	-19.475	 F	2	T511	0.000	
63	  F5	0.517	12.011	-20.608	 F	2	T511	0.000	
64	  F6	1.962	10.740	-21.660	 F	2	T511	0.000	
65	  H1	4.218	17.950	-14.434	 H	2	T511	0.000	
66	  H2	1.469	14.460	-16.609	 H	2	T511	0.000	
67	  H7	1.137	12.873	-18.394	 H	2	T511	0.000	
68	  H8	6.180	19.333	-14.418	 H	2	T511	0.000	
69	  H9	1.616	15.219	-12.139	 H	2	T511	0.000	
70	 H10	-0.132	16.858	-12.543	 H	2	T511	0.000	
71	 H11	-0.199	18.164	-14.675	 H	2	T511	0.000	
72	 H12	1.532	17.785	-16.396	 H	2	T511	0.000	
73	 H13	8.774	19.297	-17.005	 H	2	T511	0.000	
74	 H14	3.507	12.392	-21.146	 H	2	T511	0.000	
75	   P	3.063	8.025	-4.135	 P	3	RC2	1.166	
76	 O1P	3.223	8.856	-5.350	O.2	3	RC2	-0.776	
77	 O2P	1.891	7.121	-4.118	 O	3	RC2	-0.776	
78	 C5'	5.621	7.881	-3.587	C.3	3	RC2	0.056	
79	 O5'	4.397	7.181	-3.881	O.3	3	RC2	-0.499	
80	 C4'	6.718	6.889	-3.258	C.3	3	RC2	0.106	
81	 O4'	6.486	6.363	-1.919	O.3	3	RC2	-0.355	
82	 C3'	6.776	5.641	-4.140	C.3	3	RC2	0.202	
83	 O3'	7.398	5.908	-5.390	O.3	3	RC2	-0.525	
84	 C2'	7.566	4.726	-3.208	C.3	3	RC2	0.067	
85	 O2'	8.949	5.085	-3.166	O.3	3	RC2	-0.614	
86	 C1'	6.874	5.000	-1.877	C.3	3	RC2	0.007	
87	  N1	5.666	4.158	-1.647	N.pl3	3	RC2	-0.048	
88	  C2	5.853	2.891	-1.100	C.2	3	RC2	0.754	
89	  O2	7.001	2.521	-0.831	O.2	3	RC2	-0.625	
90	  N3	4.764	2.108	-0.883	N.2	3	RC2	-0.758	
91	  C4	3.536	2.547	-1.188	C.2	3	RC2	0.818	
92	  N4	2.508	1.746	-0.956	N.pl3	3	RC2	-0.953	
93	  C5	3.323	3.847	-1.751	C.2	3	RC2	-0.521	
94	  C6	4.423	4.613	-1.961	C.2	3	RC2	0.005	
95	HO'2	9.266	5.035	-2.261	 H	3	RC2	0.419	
96	  H5	2.324	4.204	-1.999	 H	3	RC2	0.193	
97	  H6	4.309	5.609	-2.388	 H	3	RC2	0.196	
98	 H1'	7.560	4.764	-1.063	 H	3	RC2	0.203	
99	 H3'	5.823	5.221	-4.460	 H	3	RC2	0.062	
100	 H4'	7.638	7.457	-3.394	 H	3	RC2	0.117	
101	 H41	1.571	2.051	-1.176	 H	3	RC2	0.423	
102	 H42	2.661	0.830	-0.559	 H	3	RC2	0.423	
103	H2'1	7.570	3.677	-3.505	 H	3	RC2	0.097	
104	H5'1	5.462	8.536	-2.730	 H	3	RC2	0.068	
105	H5'2	5.916	8.473	-4.453	 H	3	RC2	0.068	
@<TRIPOS>BOND
1 1 2 1
2 1 3 1
3 1 4 1
4 1 83 1
5 4 5 1
6 5 6 1
7 5 23 1
8 5 24 1
9 6 7 1
10 6 21 1
11 6 22 1
12 7 8 1
13 7 19 1
14 7 20 1
15 8 9 1
16 8 17 1
17 8 18 1
18 9 10 1
19 9 15 1
20 9 16 1
21 10 11 1
22 10 13 1
23 10 14 1
24 11 12 1
25 25 26 1
26 25 27 1
27 25 37 1
28 26 32 1
29 26 40 1
30 26 57 1
31 27 30 1
32 27 31 1
33 28 46 1
34 28 54 1
35 28 73 1
36 29 34 1
37 29 36 1
38 29 38 1
39 29 43 1
40 30 33 1
41 30 67 1
42 31 55 1
43 31 74 1
44 33 35 1
45 33 66 1
46 35 37 1
47 35 47 1
48 37 42 1
49 39 41 1
50 39 44 1
51 39 47 1
52 41 42 1
53 41 43 1
54 43 46 1
55 44 45 1
56 44 65 1
57 45 46 1
58 45 68 1
59 47 53 1
60 48 49 1
61 48 53 1
62 48 58 1
63 49 50 1
64 49 69 1
65 50 51 1
66 50 70 1
67 51 52 1
68 51 71 1
69 52 53 1
70 52 72 1
71 54 59 1
72 54 60 1
73 54 61 1
74 55 62 1
75 55 63 1
76 55 64 1
77 56 58 1
78 75 76 2
79 75 77 1
80 75 79 1
81 78 79 1
82 78 80 1
83 78 104 1
84 78 105 1
85 80 81 1
86 80 82 1
87 80 100 1
88 81 86 1
89 82 83 1
90 82 84 1
91 82 99 1
92 84 85 1
93 84 86 1
94 84 103 1
95 85 95 1
96 86 87 1
97 86 98 1
98 87 88 1
99 87 94 1
100 88 89 2
101 88 90 1
102 90 91 2
103 91 92 1
104 91 93 1
105 92 101 1
106 92 102 1
107 93 94 2
108 93 96 1
109 94 97 1
110 11 58 1
@<TRIPOS>SUBSTRUCTURE
1	POS1	1	GROUP	1 ****	POS
2	T511	25	GROUP	1 ****	T51
3	RC2	75	GROUP	1 ****	RC
