# created with PyMOL 2.3.3
@<TRIPOS>MOLECULE
T52_L1R
107 111 3               
SMALL
USER_CHARGES
@<TRIPOS>ATOM
1	  P1	6.493	7.034	-6.104	P.3	1	POS1	1.166	
2	 O3P	5.202	6.281	-6.321	Du	1	POS1	-0.776	
3	 O4P	6.503	8.178	-5.121	Du	1	POS1	-0.776	
4	 O01	6.845	7.605	-7.390	Os	1	POS1	-0.539	
5	 C10	5.870	8.583	-7.761	C.3	1	POS1	0.334	
6	 C11	6.236	9.179	-9.134	C.3	1	POS1	-0.048	
7	 C12	5.203	10.279	-9.496	C.3	1	POS1	0.035	
8	 C13	5.536	10.986	-10.825	C.3	1	POS1	0.008	
9	 C14	4.450	12.041	-11.140	C.3	1	POS1	0.020	
10	 C15	4.774	12.837	-12.421	C.3	1	POS1	0.114	
11	 N99	3.724	13.828	-12.691	N.3	1	POS1	-0.495	
12	 H11	3.010	14.005	-12.000	 H	1	POS1	0.252	
13	 H12	4.864	12.149	-13.265	 H	1	POS1	0.034	
14	 H13	5.737	13.353	-12.296	 H	1	POS1	0.034	
15	 H14	3.487	11.538	-11.264	 H	1	POS1	0.004	
16	 H15	4.359	12.737	-10.303	 H	1	POS1	0.004	
17	 H16	5.591	10.268	-11.637	 H	1	POS1	-0.004	
18	 H17	6.510	11.481	-10.748	 H	1	POS1	-0.004	
19	 H18	4.213	9.835	-9.557	 H	1	POS1	-0.029	
20	 H19	5.176	11.025	-8.701	 H	1	POS1	-0.029	
21	 H23	7.208	9.652	-8.997	 H	1	POS1	0.022	
22	 H24	6.248	8.421	-9.918	 H	1	POS1	0.022	
23	 H25	5.849	9.377	-7.015	 H	1	POS1	-0.021	
24	 H26	4.888	8.114	-7.819	 H	1	POS1	-0.021	
25	  C1	2.866	19.119	-14.754	C.3	2	T521	0.000	
26	  N1	-3.378	15.478	-17.661	N.3	2	T521	0.000	
27	  C2	2.915	20.487	-14.428	C.3	2	T521	0.000	
28	  N2	1.837	22.634	-14.356	N.3	2	T521	0.000	
29	  C3	1.793	21.304	-14.693	C.3	2	T521	0.000	
30	  C4	0.652	20.744	-15.265	C.3	2	T521	0.000	
31	  C5	0.617	19.389	-15.576	C.3	2	T521	0.000	
32	  C6	1.711	18.546	-15.342	C.3	2	T521	0.000	
33	  C7	1.644	17.137	-15.675	C.3	2	T521	0.000	
34	  C8	-0.679	17.622	-16.393	C.3	2	T521	0.000	
35	  C9	0.366	16.701	-16.204	C.3	2	T521	0.000	
36	 C10	0.126	15.349	-16.524	C.3	2	T521	0.000	
37	 C11	-1.925	17.226	-16.875	C.3	2	T521	0.000	
38	 C12	-2.163	15.884	-17.197	C.3	2	T521	0.000	
39	 C13	-1.124	14.938	-17.023	C.3	2	T521	0.000	
40	 C14	4.176	21.049	-13.792	C.3	2	T521	0.000	
41	 C15	-1.335	13.463	-17.358	C.3	2	T521	0.000	
42	 C16	2.780	16.175	-15.439	C.3	2	T521	0.000	
43	 C17	2.628	15.484	-14.061	C.3	2	T521	0.000	
44	 C19	-4.547	16.331	-17.854	C.3	2	T521	0.000	
45	 C20	-5.300	16.488	-16.529	C.3	2	T521	0.000	
46	 C21	0.745	23.590	-14.556	C.3	2	T521	0.000	
47	 C22	-0.331	23.389	-13.476	C.3	2	T521	0.000	
48	 O91	-0.552	18.944	-16.120	O.3	2	T521	0.000	
49	 O92	4.578	14.249	-14.647	 O	2	T521	0.000	
50	 C99	3.706	14.483	-13.821	C.3	2	T521	0.000	
51	  H1	-3.478	14.500	-17.920	 H	2	T521	0.000	
52	  H2	-5.212	15.862	-18.588	 H	2	T521	0.000	
53	  H3	-4.261	17.303	-18.249	 H	2	T521	0.000	
54	  H4	-4.654	16.946	-15.768	 H	2	T521	0.000	
55	  H5	-6.181	17.131	-16.664	 H	2	T521	0.000	
56	  H6	-5.630	15.515	-16.158	 H	2	T521	0.000	
57	  H7	2.706	22.988	-13.981	 H	2	T521	0.000	
58	  H8	0.311	23.479	-15.554	 H	2	T521	0.000	
59	  H9	1.147	24.605	-14.470	 H	2	T521	0.000	
60	 H10	-0.756	22.387	-13.520	 H	2	T521	0.000	
61	 H11	-1.149	24.105	-13.618	 H	2	T521	0.000	
62	 H12	0.077	23.533	-12.482	 H	2	T521	0.000	
63	 H13	4.933	20.269	-13.645	 H	2	T521	0.000	
64	 H14	3.957	21.482	-12.812	 H	2	T521	0.000	
65	 H15	4.615	21.822	-14.423	 H	2	T521	0.000	
66	 H16	3.743	18.520	-14.536	 H	2	T521	0.000	
67	 H17	0.893	14.591	-16.405	 H	2	T521	0.000	
68	 H18	-1.536	13.333	-18.431	 H	2	T521	0.000	
69	 H19	-0.445	12.868	-17.122	 H	2	T521	0.000	
70	 H20	-2.162	13.046	-16.796	 H	2	T521	0.000	
71	 H21	-0.224	21.336	-15.471	 H	2	T521	0.000	
72	 H22	-2.692	17.976	-16.981	 H	2	T521	0.000	
73	 H23	3.743	16.679	-15.503	 H	2	T521	0.000	
74	 H24	2.837	15.412	-16.216	 H	2	T521	0.000	
75	 H25	1.650	15.012	-13.986	 H	2	T521	0.000	
76	 H26	2.704	16.230	-13.264	 H	2	T521	0.000	
77	   P	3.063	8.025	-4.135	 P	3	RC2	1.166	
78	 O1P	3.223	8.856	-5.350	O.2	3	RC2	-0.776	
79	 O2P	1.891	7.121	-4.118	 O	3	RC2	-0.776	
80	 C5'	5.621	7.881	-3.587	C.3	3	RC2	0.056	
81	 O5'	4.397	7.181	-3.881	O.3	3	RC2	-0.499	
82	 C4'	6.718	6.889	-3.258	C.3	3	RC2	0.106	
83	 O4'	6.486	6.363	-1.919	O.3	3	RC2	-0.355	
84	 C3'	6.776	5.641	-4.140	C.3	3	RC2	0.202	
85	 O3'	7.398	5.908	-5.390	O.3	3	RC2	-0.525	
86	 C2'	7.566	4.726	-3.208	C.3	3	RC2	0.067	
87	 O2'	8.949	5.085	-3.166	O.3	3	RC2	-0.614	
88	 C1'	6.874	5.000	-1.877	C.3	3	RC2	0.007	
89	  N1	5.666	4.158	-1.647	N.pl3	3	RC2	-0.048	
90	  C2	5.853	2.891	-1.100	C.2	3	RC2	0.754	
91	  O2	7.001	2.521	-0.831	O.2	3	RC2	-0.625	
92	  N3	4.764	2.108	-0.883	N.2	3	RC2	-0.758	
93	  C4	3.536	2.547	-1.188	C.2	3	RC2	0.818	
94	  N4	2.508	1.746	-0.956	N.pl3	3	RC2	-0.953	
95	  C5	3.323	3.847	-1.751	C.2	3	RC2	-0.521	
96	  C6	4.423	4.613	-1.961	C.2	3	RC2	0.005	
97	HO'2	9.266	5.035	-2.261	 H	3	RC2	0.419	
98	  H5	2.324	4.204	-1.999	 H	3	RC2	0.193	
99	  H6	4.309	5.609	-2.388	 H	3	RC2	0.196	
100	 H1'	7.560	4.764	-1.063	 H	3	RC2	0.203	
101	 H3'	5.823	5.221	-4.460	 H	3	RC2	0.062	
102	 H4'	7.638	7.457	-3.394	 H	3	RC2	0.117	
103	 H41	1.571	2.051	-1.176	 H	3	RC2	0.423	
104	 H42	2.661	0.830	-0.559	 H	3	RC2	0.423	
105	H2'1	7.570	3.677	-3.505	 H	3	RC2	0.097	
106	H5'1	5.462	8.536	-2.730	 H	3	RC2	0.068	
107	H5'2	5.916	8.473	-4.453	 H	3	RC2	0.068	
@<TRIPOS>BOND
1 1 2 1
2 1 3 1
3 1 4 1
4 1 85 1
5 4 5 1
6 5 6 1
7 5 23 1
8 5 24 1
9 6 7 1
10 6 21 1
11 6 22 1
12 7 8 1
13 7 19 1
14 7 20 1
15 8 9 1
16 8 17 1
17 8 18 1
18 9 10 1
19 9 15 1
20 9 16 1
21 10 11 1
22 10 13 1
23 10 14 1
24 11 12 1
25 25 27 1
26 25 32 1
27 25 66 1
28 26 38 1
29 26 44 1
30 26 51 1
31 27 29 1
32 27 40 1
33 28 29 1
34 28 46 1
35 28 57 1
36 29 30 1
37 30 31 1
38 30 71 1
39 31 32 1
40 31 48 1
41 32 33 1
42 33 35 1
43 33 42 1
44 34 35 1
45 34 37 1
46 34 48 1
47 35 36 1
48 36 39 1
49 36 67 1
50 37 38 1
51 37 72 1
52 38 39 1
53 39 41 1
54 40 63 1
55 40 64 1
56 40 65 1
57 41 68 1
58 41 69 1
59 41 70 1
60 42 43 1
61 42 73 1
62 42 74 1
63 43 50 1
64 43 75 1
65 43 76 1
66 44 45 1
67 44 52 1
68 44 53 1
69 45 54 1
70 45 55 1
71 45 56 1
72 46 47 1
73 46 58 1
74 46 59 1
75 47 60 1
76 47 61 1
77 47 62 1
78 49 50 1
79 77 78 2
80 77 79 1
81 77 81 1
82 80 81 1
83 80 82 1
84 80 106 1
85 80 107 1
86 82 83 1
87 82 84 1
88 82 102 1
89 83 88 1
90 84 85 1
91 84 86 1
92 84 101 1
93 86 87 1
94 86 88 1
95 86 105 1
96 87 97 1
97 88 89 1
98 88 100 1
99 89 90 1
100 89 96 1
101 90 91 2
102 90 92 1
103 92 93 2
104 93 94 1
105 93 95 1
106 94 103 1
107 94 104 1
108 95 96 2
109 95 98 1
110 96 99 1
111 11 50 1
@<TRIPOS>SUBSTRUCTURE
1	POS1	1	GROUP	1 ****	POS
2	T521	25	GROUP	1 ****	T52
3	RC2	77	GROUP	1 ****	RC
