# created with PyMOL 2.3.3
@<TRIPOS>MOLECULE
T61_L1R
113 118 3               
SMALL
USER_CHARGES
@<TRIPOS>ATOM
1	  P1	6.493	7.034	-6.104	P.3	1	POS1	1.166	
2	 O3P	5.202	6.281	-6.321	Du	1	POS1	-0.776	
3	 O4P	6.503	8.178	-5.121	Du	1	POS1	-0.776	
4	 O01	6.845	7.605	-7.390	Os	1	POS1	-0.539	
5	 C10	5.870	8.583	-7.761	C.3	1	POS1	0.334	
6	 C11	6.236	9.179	-9.134	C.3	1	POS1	-0.048	
7	 C12	5.203	10.279	-9.496	C.3	1	POS1	0.035	
8	 C13	5.536	10.986	-10.825	C.3	1	POS1	0.008	
9	 C14	4.450	12.041	-11.140	C.3	1	POS1	0.020	
10	 C15	4.774	12.837	-12.421	C.3	1	POS1	0.114	
11	 N99	3.724	13.828	-12.691	N.3	1	POS1	-0.495	
12	 H11	3.010	14.005	-12.000	 H	1	POS1	0.252	
13	 H12	4.864	12.149	-13.265	 H	1	POS1	0.034	
14	 H13	5.737	13.353	-12.296	 H	1	POS1	0.034	
15	 H14	3.487	11.538	-11.264	 H	1	POS1	0.004	
16	 H15	4.359	12.737	-10.303	 H	1	POS1	0.004	
17	 H16	5.591	10.268	-11.637	 H	1	POS1	-0.004	
18	 H17	6.510	11.481	-10.748	 H	1	POS1	-0.004	
19	 H18	4.213	9.835	-9.557	 H	1	POS1	-0.029	
20	 H19	5.176	11.025	-8.701	 H	1	POS1	-0.029	
21	 H23	7.208	9.652	-8.997	 H	1	POS1	0.022	
22	 H24	6.248	8.421	-9.918	 H	1	POS1	0.022	
23	 H25	5.849	9.377	-7.015	 H	1	POS1	-0.021	
24	 H26	4.888	8.114	-7.819	 H	1	POS1	-0.021	
25	  C1	6.222	21.971	-18.040	C.3	2	T611	0.000	
26	  N1	1.445	17.559	-17.070	N.3	2	T611	0.000	
27	  C2	7.128	22.883	-18.591	C.3	2	T611	0.000	
28	  N2	9.186	23.726	-15.625	N.3	2	T611	0.000	
29	  C3	8.117	23.464	-17.782	C.3	2	T611	0.000	
30	  C4	8.212	23.145	-16.421	C.3	2	T611	0.000	
31	  C5	7.284	22.233	-15.890	C.3	2	T611	0.000	
32	  C6	6.280	21.624	-16.681	C.3	2	T611	0.000	
33	  C7	5.284	20.620	-16.054	C.3	2	T611	0.000	
34	  C8	4.257	20.026	-17.051	C.3	2	T611	0.000	
35	  C9	4.237	20.402	-18.407	C.3	2	T611	0.000	
36	 C10	5.202	21.381	-18.921	C.3	2	T611	0.000	
37	 C11	2.375	18.902	-18.860	C.3	2	T611	0.000	
38	 C12	3.317	19.846	-19.299	C.3	2	T611	0.000	
39	 C13	3.303	19.072	-16.628	C.3	2	T611	0.000	
40	 C14	2.357	18.507	-17.504	C.3	2	T611	0.000	
41	 C15	0.424	16.997	-17.980	C.3	2	T611	0.000	
42	 C16	0.941	16.911	-19.427	C.3	2	T611	0.000	
43	 C17	1.406	18.310	-19.863	C.3	2	T611	0.000	
44	 C18	9.322	23.408	-14.188	C.3	2	T611	0.000	
45	 C19	10.179	24.673	-16.156	C.3	2	T611	0.000	
46	 C20	6.084	19.461	-15.397	C.3	2	T611	0.000	
47	 C21	4.491	21.349	-14.934	C.3	2	T611	0.000	
48	 C22	1.407	17.032	-15.704	C.3	2	T611	0.000	
49	 C23	2.513	15.971	-15.519	C.3	2	T611	0.000	
50	 C24	2.615	15.492	-14.056	C.3	2	T611	0.000	
51	 O91	4.585	14.242	-14.643	 O	2	T611	0.000	
52	 C99	3.712	14.482	-13.829	C.3	2	T611	0.000	
53	  H1	7.080	23.137	-19.651	 H	2	T611	0.000	
54	  H2	8.802	24.158	-18.241	 H	2	T611	0.000	
55	  H3	7.340	21.973	-14.839	 H	2	T611	0.000	
56	  H4	5.185	21.660	-19.971	 H	2	T611	0.000	
57	  H5	3.323	20.151	-20.346	 H	2	T611	0.000	
58	  H6	3.301	18.780	-15.586	 H	2	T611	0.000	
59	  H7	-0.468	17.629	-17.950	 H	2	T611	0.000	
60	  H8	0.138	15.990	-17.651	 H	2	T611	0.000	
61	  H9	0.150	16.546	-20.085	 H	2	T611	0.000	
62	 H10	1.769	16.207	-19.474	 H	2	T611	0.000	
63	 H11	0.543	18.970	-19.962	 H	2	T611	0.000	
64	 H12	1.874	18.236	-20.850	 H	2	T611	0.000	
65	 H13	9.526	22.336	-14.066	 H	2	T611	0.000	
66	 H14	8.402	23.656	-13.659	 H	2	T611	0.000	
67	 H15	10.152	23.958	-13.733	 H	2	T611	0.000	
68	 H16	10.725	24.208	-16.985	 H	2	T611	0.000	
69	 H17	9.673	25.575	-16.538	 H	2	T611	0.000	
70	 H18	10.902	24.978	-15.402	 H	2	T611	0.000	
71	 H19	6.765	19.826	-14.625	 H	2	T611	0.000	
72	 H20	6.686	18.958	-16.153	 H	2	T611	0.000	
73	 H21	5.432	18.719	-14.931	 H	2	T611	0.000	
74	 H22	5.158	21.768	-14.177	 H	2	T611	0.000	
75	 H23	3.919	22.175	-15.363	 H	2	T611	0.000	
76	 H24	3.802	20.684	-14.425	 H	2	T611	0.000	
77	 H25	1.534	17.836	-14.976	 H	2	T611	0.000	
78	 H26	0.436	16.570	-15.497	 H	2	T611	0.000	
79	 H27	2.310	15.111	-16.172	 H	2	T611	0.000	
80	 H28	3.474	16.391	-15.822	 H	2	T611	0.000	
81	 H29	1.665	15.056	-13.765	 H	2	T611	0.000	
82	 H30	2.799	16.346	-13.396	 H	2	T611	0.000	
83	   P	3.063	8.025	-4.135	 P	3	RC2	1.166	
84	 O1P	3.223	8.856	-5.350	O.2	3	RC2	-0.776	
85	 O2P	1.891	7.121	-4.118	 O	3	RC2	-0.776	
86	 C5'	5.621	7.881	-3.587	C.3	3	RC2	0.056	
87	 O5'	4.397	7.181	-3.881	O.3	3	RC2	-0.499	
88	 C4'	6.718	6.889	-3.258	C.3	3	RC2	0.106	
89	 O4'	6.486	6.363	-1.919	O.3	3	RC2	-0.355	
90	 C3'	6.776	5.641	-4.140	C.3	3	RC2	0.202	
91	 O3'	7.398	5.908	-5.390	O.3	3	RC2	-0.525	
92	 C2'	7.566	4.726	-3.208	C.3	3	RC2	0.067	
93	 O2'	8.949	5.085	-3.166	O.3	3	RC2	-0.614	
94	 C1'	6.874	5.000	-1.877	C.3	3	RC2	0.007	
95	  N1	5.666	4.158	-1.647	N.pl3	3	RC2	-0.048	
96	  C2	5.853	2.891	-1.100	C.2	3	RC2	0.754	
97	  O2	7.001	2.521	-0.831	O.2	3	RC2	-0.625	
98	  N3	4.764	2.108	-0.883	N.2	3	RC2	-0.758	
99	  C4	3.536	2.547	-1.188	C.2	3	RC2	0.818	
100	  N4	2.508	1.746	-0.956	N.pl3	3	RC2	-0.953	
101	  C5	3.323	3.847	-1.751	C.2	3	RC2	-0.521	
102	  C6	4.423	4.613	-1.961	C.2	3	RC2	0.005	
103	HO'2	9.266	5.035	-2.261	 H	3	RC2	0.419	
104	  H5	2.324	4.204	-1.999	 H	3	RC2	0.193	
105	  H6	4.309	5.609	-2.388	 H	3	RC2	0.196	
106	 H1'	7.560	4.764	-1.063	 H	3	RC2	0.203	
107	 H3'	5.823	5.221	-4.460	 H	3	RC2	0.062	
108	 H4'	7.638	7.457	-3.394	 H	3	RC2	0.117	
109	 H41	1.571	2.051	-1.176	 H	3	RC2	0.423	
110	 H42	2.661	0.830	-0.559	 H	3	RC2	0.423	
111	H2'1	7.570	3.677	-3.505	 H	3	RC2	0.097	
112	H5'1	5.462	8.536	-2.730	 H	3	RC2	0.068	
113	H5'2	5.916	8.473	-4.453	 H	3	RC2	0.068	
@<TRIPOS>BOND
1 1 2 1
2 1 3 1
3 1 4 1
4 1 91 1
5 4 5 1
6 5 6 1
7 5 23 1
8 5 24 1
9 6 7 1
10 6 21 1
11 6 22 1
12 7 8 1
13 7 19 1
14 7 20 1
15 8 9 1
16 8 17 1
17 8 18 1
18 9 10 1
19 9 15 1
20 9 16 1
21 10 11 1
22 10 13 1
23 10 14 1
24 11 12 1
25 25 27 1
26 25 32 1
27 25 36 1
28 26 40 1
29 26 41 1
30 26 48 1
31 27 29 1
32 27 53 1
33 28 30 1
34 28 44 1
35 28 45 1
36 29 30 1
37 29 54 1
38 30 31 1
39 31 32 1
40 31 55 1
41 32 33 1
42 33 34 1
43 33 46 1
44 33 47 1
45 34 35 1
46 34 39 1
47 35 36 1
48 35 38 1
49 36 56 1
50 37 38 1
51 37 40 1
52 37 43 1
53 38 57 1
54 39 40 1
55 39 58 1
56 41 42 1
57 41 59 1
58 41 60 1
59 42 43 1
60 42 61 1
61 42 62 1
62 43 63 1
63 43 64 1
64 44 65 1
65 44 66 1
66 44 67 1
67 45 68 1
68 45 69 1
69 45 70 1
70 46 71 1
71 46 72 1
72 46 73 1
73 47 74 1
74 47 75 1
75 47 76 1
76 48 49 1
77 48 77 1
78 48 78 1
79 49 50 1
80 49 79 1
81 49 80 1
82 50 52 1
83 50 81 1
84 50 82 1
85 51 52 1
86 83 84 2
87 83 85 1
88 83 87 1
89 86 87 1
90 86 88 1
91 86 112 1
92 86 113 1
93 88 89 1
94 88 90 1
95 88 108 1
96 89 94 1
97 90 91 1
98 90 92 1
99 90 107 1
100 92 93 1
101 92 94 1
102 92 111 1
103 93 103 1
104 94 95 1
105 94 106 1
106 95 96 1
107 95 102 1
108 96 97 2
109 96 98 1
110 98 99 2
111 99 100 1
112 99 101 1
113 100 109 1
114 100 110 1
115 101 102 2
116 101 104 1
117 102 105 1
118 11 52 1
@<TRIPOS>SUBSTRUCTURE
1	POS1	1	GROUP	1 ****	POS
2	T611	25	GROUP	1 ****	T61
3	RC2	83	GROUP	1 ****	RC
