# created with PyMOL 2.3.3
@<TRIPOS>MOLECULE
A35_L1R
29 30 1                 
SMALL
USER_CHARGES
@<TRIPOS>ATOM
1	  C1	23.230	22.730	33.620	C.3	1	A351	0.000	
2	  N1	24.710	21.780	35.130	N.3	1	A351	0.000	
3	  S1	27.120	21.700	33.190	S.3	1	A351	0.000	
4	  C2	24.500	22.260	33.890	C.3	1	A351	0.000	
5	  C3	25.490	22.290	32.910	C.3	1	A351	0.000	
6	  O3	27.300	21.100	34.480	O.3	1	A351	0.000	
7	  C4	25.190	22.810	31.650	C.3	1	A351	0.000	
8	  O4	27.820	22.920	32.930	O.3	1	A351	0.000	
9	  C5	23.900	23.290	31.370	C.3	1	A351	0.000	
10	  O5	27.470	21.050	31.970	O.3	1	A351	0.000	
11	  C6	22.940	23.240	32.370	C.3	1	A351	0.000	
12	  O6	20.940	22.630	28.038	O.3	1	A351	0.000	
13	  C7	23.580	23.810	30.080	C.3	1	A351	0.000	
14	  C8	22.290	24.290	29.930	C.3	1	A351	0.000	
15	  C9	21.320	24.260	31.030	C.3	1	A351	0.000	
16	 C10	24.590	23.890	28.970	C.3	1	A351	0.000	
17	 C11	21.780	24.810	28.580	C.3	1	A351	0.000	
18	 O91	21.700	23.710	32.170	O.3	1	A351	0.000	
19	 O92	20.210	24.770	30.980	O.3	1	A351	0.000	
20	 C99	21.082	23.790	27.713	C.3	1	A351	0.000	
21	  H1	25.650	21.440	35.350	 H	1	A351	0.000	
22	  H2	23.970	21.770	35.820	 H	1	A351	0.000	
23	  H3	24.820	22.890	28.600	 H	1	A351	0.000	
24	  H4	24.270	24.480	28.110	 H	1	A351	0.000	
25	  H5	25.520	24.350	29.320	 H	1	A351	0.000	
26	  H6	25.980	22.820	30.890	 H	1	A351	0.000	
27	  H7	22.460	22.700	34.380	 H	1	A351	0.000	
28	  H8	22.602	25.262	28.004	 H	1	A351	0.000	
29	  H9	21.065	25.620	28.712	 H	1	A351	0.000	
@<TRIPOS>BOND
1 1 4 1
2 1 11 1
3 1 27 1
4 2 21 1
5 2 22 1
6 3 6 1
7 3 8 1
8 3 10 1
9 2 4 1
10 3 5 1
11 4 5 1
12 5 7 1
13 7 26 1
14 7 9 1
15 9 13 1
16 9 11 1
17 11 18 1
18 13 14 1
19 13 16 1
20 14 15 1
21 14 17 1
22 15 18 1
23 15 19 1
24 16 23 1
25 16 24 1
26 16 25 1
27 17 20 1
28 17 28 1
29 17 29 1
30 12 20 1
@<TRIPOS>SUBSTRUCTURE
1	A351	1	GROUP	1 ****	A35
