# created with PyMOL 2.3.3
@<TRIPOS>MOLECULE
A48_L1R
46 49 1                 
SMALL
USER_CHARGES
@<TRIPOS>ATOM
1	  C1	34.260	27.840	24.680	C.3	1	A481	0.000	
2	  N1	31.290	30.110	30.940	N.3	1	A481	0.000	
3	  S1	33.480	30.740	28.970	S.3	1	A481	0.000	
4	  C2	34.250	26.920	23.640	C.3	1	A481	0.000	
5	  N2	35.110	27.000	22.610	N.3	1	A481	0.000	
6	  S2	35.370	29.180	24.650	S.3	1	A481	0.000	
7	  C3	33.350	25.860	23.620	C.3	1	A481	0.000	
8	  O3	34.510	29.970	29.600	O.3	1	A481	0.000	
9	  C4	32.420	25.710	24.640	C.3	1	A481	0.000	
10	  O4	33.970	31.090	27.690	O.3	1	A481	0.000	
11	  C5	32.410	26.630	25.710	C.3	1	A481	0.000	
12	  O5	36.310	29.200	23.560	O.3	1	A481	0.000	
13	  C6	33.340	27.690	25.750	C.3	1	A481	0.000	
14	  O6	35.900	29.290	25.970	O.3	1	A481	0.000	
15	  C7	31.460	26.500	26.740	C.3	1	A481	0.000	
16	  O7	34.380	30.220	24.550	O.3	1	A481	0.000	
17	  C8	31.440	27.420	27.810	C.3	1	A481	0.000	
18	  O8	31.720	22.540	28.340	O.3	1	A481	0.000	
19	  C9	32.390	28.470	27.840	C.3	1	A481	0.000	
20	  O9	32.740	24.340	27.920	O.3	1	A481	0.000	
21	 C10	32.350	29.400	28.900	C.3	1	A481	0.000	
22	 O10	27.140	21.600	26.660	O.3	1	A481	0.000	
23	 C11	30.480	27.300	28.830	C.3	1	A481	0.000	
24	 C12	30.460	28.230	29.870	C.3	1	A481	0.000	
25	 C13	31.390	29.260	29.900	C.3	1	A481	0.000	
26	 C14	30.410	25.490	26.650	C.3	1	A481	0.000	
27	 C15	29.220	25.900	26.010	C.3	1	A481	0.000	
28	 C16	28.140	25.020	25.870	C.3	1	A481	0.000	
29	 C17	28.210	23.710	26.390	C.3	1	A481	0.000	
30	 C18	29.390	23.320	27.050	C.3	1	A481	0.000	
31	 C19	30.510	24.170	27.190	C.3	1	A481	0.000	
32	 C20	31.730	23.670	27.870	C.3	1	A481	0.000	
33	 O91	33.320	28.580	26.820	O.3	1	A481	0.000	
34	 O92	33.120	31.770	29.900	O.3	1	A481	0.000	
35	 C99	27.100	22.750	26.240	C.3	1	A481	0.000	
36	  H1	31.930	30.910	30.950	 H	1	A481	0.000	
37	  H2	30.490	30.100	31.560	 H	1	A481	0.000	
38	  H3	35.790	27.750	22.610	 H	1	A481	0.000	
39	  H4	35.170	26.250	21.920	 H	1	A481	0.000	
40	  H5	27.250	25.390	25.360	 H	1	A481	0.000	
41	  H6	29.140	26.910	25.620	 H	1	A481	0.000	
42	  H7	29.450	22.310	27.450	 H	1	A481	0.000	
43	  H8	29.730	26.510	28.830	 H	1	A481	0.000	
44	  H9	29.720	28.140	30.650	 H	1	A481	0.000	
45	 H10	31.720	24.870	24.590	 H	1	A481	0.000	
46	 H11	33.370	25.160	22.790	 H	1	A481	0.000	
@<TRIPOS>BOND
1 1 4 1
2 1 6 1
3 1 13 1
4 2 36 1
5 2 37 1
6 3 8 1
7 3 10 1
8 3 34 1
9 4 5 1
10 5 38 1
11 5 39 1
12 6 12 1
13 6 14 1
14 6 16 1
15 4 7 1
16 7 46 1
17 7 9 1
18 9 45 1
19 9 11 1
20 11 15 1
21 11 13 1
22 13 33 1
23 15 17 1
24 15 26 1
25 17 19 1
26 17 23 1
27 19 21 1
28 19 33 1
29 3 21 1
30 21 25 1
31 23 43 1
32 23 24 1
33 24 44 1
34 2 25 1
35 24 25 1
36 26 27 1
37 26 31 1
38 27 28 1
39 27 41 1
40 28 29 1
41 28 40 1
42 29 30 1
43 29 35 1
44 30 31 1
45 30 42 1
46 31 32 1
47 18 32 1
48 20 32 1
49 22 35 1
@<TRIPOS>SUBSTRUCTURE
1	A481	1	GROUP	1 ****	A48
