# created with PyMOL 2.3.3
@<TRIPOS>MOLECULE
A53_L1R
70 75 1                 
SMALL
USER_CHARGES
@<TRIPOS>ATOM
1	  C1	27.250	23.850	24.130	C.3	1	A531	0.000	
2	  N1	24.820	23.680	24.410	N.3	1	A531	0.000	
3	  S1	32.500	23.090	23.660	S.3	1	A531	0.000	
4	  C2	25.950	24.360	24.140	C.3	1	A531	0.000	
5	  N2	34.320	25.430	22.790	N.3	1	A531	0.000	
6	  S2	27.500	22.170	24.540	S.3	1	A531	0.000	
7	  C3	25.670	25.680	23.880	C.3	1	A531	0.000	
8	  O3	28.830	21.950	25.010	O.3	1	A531	0.000	
9	  C4	26.680	26.590	23.590	C.3	1	A531	0.000	
10	  O4	27.270	21.600	23.240	O.3	1	A531	0.000	
11	  C5	28.010	26.110	23.540	C.3	1	A531	0.000	
12	  O5	31.410	22.180	23.770	O.3	1	A531	0.000	
13	  C6	28.310	24.740	23.810	C.3	1	A531	0.000	
14	  O6	33.110	23.440	24.910	O.3	1	A531	0.000	
15	  C7	29.060	27.010	23.240	C.3	1	A531	0.000	
16	  O7	33.650	22.770	22.860	O.3	1	A531	0.000	
17	  C8	30.390	26.540	23.150	C.3	1	A531	0.000	
18	  O8	28.160	33.150	21.450	O.3	1	A531	0.000	
19	  C9	30.670	25.170	23.400	C.3	1	A531	0.000	
20	 C10	32.010	24.720	23.310	C.3	1	A531	0.000	
21	 C11	31.410	27.440	22.800	C.3	1	A531	0.000	
22	 C12	32.710	26.970	22.700	C.3	1	A531	0.000	
23	 C13	33.000	25.650	22.950	C.3	1	A531	0.000	
24	 C14	23.630	24.510	24.400	C.3	1	A531	0.000	
25	 C15	24.180	25.940	23.970	C.3	1	A531	0.000	
26	 C16	33.950	27.740	22.330	C.3	1	A531	0.000	
27	 C17	35.060	26.610	22.410	C.3	1	A531	0.000	
28	 C18	36.160	26.780	23.470	C.3	1	A531	0.000	
29	 C19	33.830	28.300	20.890	C.3	1	A531	0.000	
30	 C20	22.630	23.810	23.470	C.3	1	A531	0.000	
31	 C21	23.660	26.450	22.610	C.3	1	A531	0.000	
32	 C22	23.890	27.010	25.030	C.3	1	A531	0.000	
33	 C23	34.150	28.940	23.290	C.3	1	A531	0.000	
34	 C24	28.810	28.430	23.040	C.3	1	A531	0.000	
35	 C25	28.580	28.990	21.770	C.3	1	A531	0.000	
36	 C26	28.430	30.370	21.620	C.3	1	A531	0.000	
37	 C27	28.480	31.210	22.750	C.3	1	A531	0.000	
38	 C28	28.680	30.650	24.020	C.3	1	A531	0.000	
39	 C29	28.850	29.280	24.160	C.3	1	A531	0.000	
40	 O91	29.640	24.310	23.750	O.3	1	A531	0.000	
41	 O92	26.390	21.660	25.290	O.3	1	A531	0.000	
42	 C99	28.320	32.650	22.540	C.3	1	A531	0.000	
43	  H1	34.710	24.490	22.880	 H	1	A531	0.000	
44	  H2	24.840	22.700	24.640	 H	1	A531	0.000	
45	  H3	22.340	22.850	23.900	 H	1	A531	0.000	
46	  H4	21.730	24.410	23.340	 H	1	A531	0.000	
47	  H5	23.080	23.620	22.490	 H	1	A531	0.000	
48	  H6	22.570	26.540	22.630	 H	1	A531	0.000	
49	  H7	24.080	27.430	22.370	 H	1	A531	0.000	
50	  H8	23.930	25.760	21.810	 H	1	A531	0.000	
51	  H9	24.330	27.970	24.760	 H	1	A531	0.000	
52	 H10	24.300	26.710	26.000	 H	1	A531	0.000	
53	 H11	22.810	27.150	25.140	 H	1	A531	0.000	
54	 H12	26.430	27.630	23.390	 H	1	A531	0.000	
55	 H13	31.230	28.500	22.590	 H	1	A531	0.000	
56	 H14	35.070	29.480	23.050	 H	1	A531	0.000	
57	 H15	34.210	28.590	24.320	 H	1	A531	0.000	
58	 H16	33.320	29.630	23.220	 H	1	A531	0.000	
59	 H17	33.650	27.490	20.190	 H	1	A531	0.000	
60	 H18	32.990	29.000	20.820	 H	1	A531	0.000	
61	 H19	34.740	28.830	20.600	 H	1	A531	0.000	
62	 H20	35.740	26.740	24.480	 H	1	A531	0.000	
63	 H21	36.690	27.730	23.370	 H	1	A531	0.000	
64	 H22	36.890	25.970	23.370	 H	1	A531	0.000	
65	 H23	28.560	28.350	20.890	 H	1	A531	0.000	
66	 H24	28.270	30.780	20.620	 H	1	A531	0.000	
67	 H25	28.720	31.260	24.920	 H	1	A531	0.000	
68	 H26	29.030	28.860	25.150	 H	1	A531	0.000	
69	 H27	23.220	24.560	25.410	 H	1	A531	0.000	
70	 H28	35.520	26.460	21.430	 H	1	A531	0.000	
@<TRIPOS>BOND
1 1 4 1
2 1 6 1
3 1 13 1
4 2 4 1
5 2 44 1
6 3 12 1
7 3 14 1
8 3 16 1
9 5 43 1
10 6 8 1
11 6 10 1
12 6 41 1
13 4 7 1
14 7 25 1
15 7 9 1
16 9 54 1
17 9 11 1
18 11 15 1
19 11 13 1
20 13 40 1
21 15 17 1
22 15 34 1
23 17 19 1
24 17 21 1
25 19 20 1
26 19 40 1
27 3 20 1
28 20 23 1
29 21 55 1
30 21 22 1
31 22 26 1
32 5 23 1
33 22 23 1
34 2 24 1
35 24 30 1
36 24 69 1
37 24 25 1
38 25 31 1
39 25 32 1
40 26 27 1
41 26 29 1
42 26 33 1
43 5 27 1
44 27 28 1
45 27 70 1
46 28 62 1
47 28 63 1
48 28 64 1
49 29 59 1
50 29 60 1
51 29 61 1
52 30 45 1
53 30 46 1
54 30 47 1
55 31 48 1
56 31 49 1
57 31 50 1
58 32 51 1
59 32 52 1
60 32 53 1
61 33 56 1
62 33 57 1
63 33 58 1
64 34 35 1
65 34 39 1
66 35 36 1
67 35 65 1
68 36 37 1
69 36 66 1
70 37 38 1
71 37 42 1
72 38 39 1
73 38 67 1
74 39 68 1
75 18 42 1
@<TRIPOS>SUBSTRUCTURE
1	A531	1	GROUP	1 ****	A53
