# created with PyMOL 2.3.3
@<TRIPOS>MOLECULE
A56_L1R
75 80 1                 
SMALL
USER_CHARGES
@<TRIPOS>ATOM
1	  C1	23.620	33.570	33.330	C.3	1	A561	0.000	
2	  N1	23.490	32.320	34.040	N.3	1	A561	0.000	
3	  S1	21.270	21.680	30.560	S.3	1	A561	0.000	
4	  C2	23.200	33.460	31.900	C.3	1	A561	0.000	
5	  N2	23.500	23.030	35.260	N.3	1	A561	0.000	
6	  S2	24.150	32.220	28.860	S.3	1	A561	0.000	
7	  C3	22.970	32.290	31.280	C.3	1	A561	0.000	
8	  O3	25.070	33.160	29.430	O.3	1	A561	0.000	
9	  C4	23.020	31.030	32.050	C.3	1	A561	0.000	
10	  O4	23.760	32.630	27.550	O.3	1	A561	0.000	
11	  C5	23.290	31.120	33.430	C.3	1	A561	0.000	
12	  O5	20.710	22.980	30.380	O.3	1	A561	0.000	
13	  C6	23.360	29.980	34.230	C.3	1	A561	0.000	
14	  O6	20.590	20.880	31.540	O.3	1	A561	0.000	
15	  C7	22.820	29.750	31.480	C.3	1	A561	0.000	
16	  O7	21.540	20.990	29.330	O.3	1	A561	0.000	
17	  C8	22.910	28.590	32.290	C.3	1	A561	0.000	
18	  O8	18.720	27.120	30.380	O.3	1	A561	0.000	
19	  C9	23.190	28.720	33.660	C.3	1	A561	0.000	
20	  O9	20.020	27.190	32.040	O.3	1	A561	0.000	
21	 C10	22.750	27.290	31.740	C.3	1	A561	0.000	
22	 O10	20.340	26.940	25.760	O.3	1	A561	0.000	
23	 C11	22.930	26.160	32.590	C.3	1	A561	0.000	
24	 C12	23.200	26.390	33.950	C.3	1	A561	0.000	
25	 C13	23.370	25.320	34.830	C.3	1	A561	0.000	
26	 C14	22.840	24.840	32.110	C.3	1	A561	0.000	
27	 C15	23.050	23.750	32.990	C.3	1	A561	0.000	
28	 C16	23.300	24.020	34.360	C.3	1	A561	0.000	
29	 C17	23.040	22.330	32.570	C.3	1	A561	0.000	
30	 C18	23.270	21.370	33.480	C.3	1	A561	0.000	
31	 C19	23.600	21.630	34.930	C.3	1	A561	0.000	
32	 C20	25.090	33.980	33.390	C.3	1	A561	0.000	
33	 C21	22.790	34.620	34.030	C.3	1	A561	0.000	
34	 C22	22.690	20.840	35.860	C.3	1	A561	0.000	
35	 C23	25.050	21.220	35.180	C.3	1	A561	0.000	
36	 C24	22.900	21.930	31.120	C.3	1	A561	0.000	
37	 C25	22.680	32.320	29.800	C.3	1	A561	0.000	
38	 C26	22.410	27.150	30.340	C.3	1	A561	0.000	
39	 C27	23.460	27.110	29.400	C.3	1	A561	0.000	
40	 C28	23.190	27.040	28.030	C.3	1	A561	0.000	
41	 C29	21.860	27.020	27.560	C.3	1	A561	0.000	
42	 C30	20.820	27.030	28.510	C.3	1	A561	0.000	
43	 C31	21.050	27.100	29.900	C.3	1	A561	0.000	
44	 C32	19.860	27.130	30.770	C.3	1	A561	0.000	
45	 O91	23.300	27.640	34.490	O.3	1	A561	0.000	
46	 O92	24.500	30.830	28.920	O.3	1	A561	0.000	
47	 C99	21.500	26.980	26.140	C.3	1	A561	0.000	
48	  H1	25.230	34.960	32.930	 H	1	A561	0.000	
49	  H2	25.430	34.020	34.420	 H	1	A561	0.000	
50	  H3	25.700	33.260	32.840	 H	1	A561	0.000	
51	  H4	21.740	34.340	34.030	 H	1	A561	0.000	
52	  H5	22.880	35.580	33.520	 H	1	A561	0.000	
53	  H6	23.120	34.760	35.060	 H	1	A561	0.000	
54	  H7	23.190	34.380	31.350	 H	1	A561	0.000	
55	  H8	23.630	32.340	35.040	 H	1	A561	0.000	
56	  H9	23.610	23.270	36.250	 H	1	A561	0.000	
57	 H10	22.980	20.990	36.910	 H	1	A561	0.000	
58	 H11	21.660	21.170	35.750	 H	1	A561	0.000	
59	 H12	22.740	19.780	35.640	 H	1	A561	0.000	
60	 H13	25.190	20.150	34.990	 H	1	A561	0.000	
61	 H14	25.340	21.420	36.220	 H	1	A561	0.000	
62	 H15	25.730	21.770	34.530	 H	1	A561	0.000	
63	 H16	23.410	20.980	30.960	 H	1	A561	0.000	
64	 H17	23.340	22.670	30.450	 H	1	A561	0.000	
65	 H18	22.030	31.510	29.480	 H	1	A561	0.000	
66	 H19	22.210	33.270	29.530	 H	1	A561	0.000	
67	 H21	23.570	30.050	35.290	 H	1	A561	0.000	
68	 H22	23.570	25.530	35.880	 H	1	A561	0.000	
69	 H23	22.620	24.640	31.060	 H	1	A561	0.000	
70	 H24	22.620	29.670	30.410	 H	1	A561	0.000	
71	 H25	23.270	20.320	33.190	 H	1	A561	0.000	
72	 H26	24.490	27.150	29.740	 H	1	A561	0.000	
73	 H27	24.030	27.010	27.340	 H	1	A561	0.000	
74	 H28	19.790	27.000	28.160	 H	1	A561	0.000	
75	 H32	19.070	27.160	32.310	 H	1	A561	0.000	
@<TRIPOS>BOND
1 1 32 1
2 1 33 1
3 1 2 1
4 2 11 1
5 2 55 1
6 3 12 1
7 3 14 1
8 3 16 1
9 1 4 1
10 4 54 1
11 5 31 1
12 5 56 1
13 6 8 1
14 6 10 1
15 6 46 1
16 4 7 1
17 7 37 1
18 7 9 1
19 9 15 1
20 9 11 1
21 11 13 1
22 13 67 1
23 15 17 1
24 15 70 1
25 17 19 1
26 17 21 1
27 13 19 1
28 19 45 1
29 20 75 1
30 21 38 1
31 21 23 1
32 23 26 1
33 23 24 1
34 24 25 1
35 25 68 1
36 26 27 1
37 26 69 1
38 27 28 1
39 27 29 1
40 5 28 1
41 25 28 1
42 29 36 1
43 29 30 1
44 30 71 1
45 30 31 1
46 31 34 1
47 31 35 1
48 32 48 1
49 32 49 1
50 32 50 1
51 33 51 1
52 33 52 1
53 33 53 1
54 34 57 1
55 34 58 1
56 34 59 1
57 35 60 1
58 35 61 1
59 35 62 1
60 3 36 1
61 36 63 1
62 36 64 1
63 6 37 1
64 37 65 1
65 37 66 1
66 38 39 1
67 38 43 1
68 39 40 1
69 39 72 1
70 40 41 1
71 40 73 1
72 41 42 1
73 41 47 1
74 42 43 1
75 42 74 1
76 43 44 1
77 18 44 1
78 20 44 1
79 24 45 1
80 22 47 1
@<TRIPOS>SUBSTRUCTURE
1	A561	1	GROUP	1 ****	A56
