# created with PyMOL 2.3.3
@<TRIPOS>MOLECULE
A59_L1R
81 86 1                 
SMALL
USER_CHARGES
@<TRIPOS>ATOM
1	  C1	29.730	21.910	26.690	C.3	1	A591	0.000	
2	  N1	28.450	22.210	27.380	N.3	1	A591	0.000	
3	  S1	30.570	25.800	24.130	S.3	1	A591	0.000	
4	  C2	30.450	23.150	26.230	C.3	1	A591	0.000	
5	  N2	21.660	27.810	31.070	N.3	1	A591	0.000	
6	  S2	24.250	32.410	30.980	S.3	1	A591	0.000	
7	  C3	29.990	24.390	26.370	C.3	1	A591	0.000	
8	  O3	28.120	27.670	30.260	O.3	1	A591	0.000	
9	  C4	28.690	24.620	27.050	C.3	1	A591	0.000	
10	  O4	30.160	32.570	26.740	O.3	1	A591	0.000	
11	  C5	27.980	23.510	27.540	C.3	1	A591	0.000	
12	  O5	29.170	26.010	23.980	O.3	1	A591	0.000	
13	  C6	26.760	23.730	28.220	C.3	1	A591	0.000	
14	  O6	31.090	24.610	23.530	O.3	1	A591	0.000	
15	  C7	28.180	25.920	27.220	C.3	1	A591	0.000	
16	  O7	31.420	26.910	23.840	O.3	1	A591	0.000	
17	  C8	26.970	26.120	27.910	C.3	1	A591	0.000	
18	  O8	25.160	31.500	31.600	O.3	1	A591	0.000	
19	  C9	26.270	25.020	28.410	C.3	1	A591	0.000	
20	  O9	23.160	32.840	31.810	O.3	1	A591	0.000	
21	 C10	26.450	27.420	28.150	C.3	1	A591	0.000	
22	 O10	24.830	33.490	30.260	O.3	1	A591	0.000	
23	 C11	25.260	27.560	28.900	C.3	1	A591	0.000	
24	 C12	24.620	26.410	29.350	C.3	1	A591	0.000	
25	 C13	23.430	26.510	30.080	C.3	1	A591	0.000	
26	 C14	24.700	28.830	29.180	C.3	1	A591	0.000	
27	 C15	23.490	28.930	29.910	C.3	1	A591	0.000	
28	 C16	22.850	27.760	30.360	C.3	1	A591	0.000	
29	 C17	22.870	30.240	30.190	C.3	1	A591	0.000	
30	 C18	21.720	30.280	30.880	C.3	1	A591	0.000	
31	 C19	21.020	29.100	31.460	C.3	1	A591	0.000	
32	 C20	27.180	28.600	27.690	C.3	1	A591	0.000	
33	 C21	26.800	29.140	26.450	C.3	1	A591	0.000	
34	 C22	27.450	30.270	25.930	C.3	1	A591	0.000	
35	 C23	28.500	30.880	26.640	C.3	1	A591	0.000	
36	 C24	28.880	30.320	27.890	C.3	1	A591	0.000	
37	 C25	28.240	29.190	28.440	C.3	1	A591	0.000	
38	 C26	28.720	28.680	29.750	C.3	1	A591	0.000	
39	 C27	20.980	26.570	31.510	C.3	1	A591	0.000	
40	 C28	21.060	29.260	32.980	C.3	1	A591	0.000	
41	 C29	19.570	29.170	30.960	C.3	1	A591	0.000	
42	 C30	29.470	21.060	25.440	C.3	1	A591	0.000	
43	 C31	30.680	21.170	27.640	C.3	1	A591	0.000	
44	 C32	27.670	21.050	27.880	C.3	1	A591	0.000	
45	 C34	30.830	25.530	25.830	C.3	1	A591	0.000	
46	 C35	23.450	31.530	29.710	C.3	1	A591	0.000	
47	 O91	25.110	25.160	29.110	O.3	1	A591	0.000	
48	 O92	29.660	29.130	30.370	O.3	1	A591	0.000	
49	 C99	29.220	32.070	26.150	C.3	1	A591	0.000	
50	  H1	19.140	30.150	31.170	 H	1	A591	0.000	
51	  H2	18.930	28.430	31.430	 H	1	A591	0.000	
52	  H3	19.540	29.010	29.890	 H	1	A591	0.000	
53	  H4	22.090	29.220	33.340	 H	1	A591	0.000	
54	  H5	20.630	30.220	33.280	 H	1	A591	0.000	
55	  H6	20.500	28.470	33.480	 H	1	A591	0.000	
56	  H7	28.780	21.590	24.770	 H	1	A591	0.000	
57	  H8	30.400	20.890	24.900	 H	1	A591	0.000	
58	  H9	29.040	20.090	25.680	 H	1	A591	0.000	
59	 H10	30.290	20.200	27.940	 H	1	A591	0.000	
60	 H11	30.860	21.760	28.540	 H	1	A591	0.000	
61	 H12	31.650	21.000	27.150	 H	1	A591	0.000	
62	 H13	27.550	21.110	28.970	 H	1	A591	0.000	
63	 H14	26.680	21.030	27.410	 H	1	A591	0.000	
64	 H15	28.150	20.090	27.670	 H	1	A591	0.000	
65	 H16	20.730	25.950	30.640	 H	1	A591	0.000	
66	 H17	20.070	26.760	32.070	 H	1	A591	0.000	
67	 H18	21.650	26.000	32.160	 H	1	A591	0.000	
68	 H19	30.640	26.470	26.340	 H	1	A591	0.000	
69	 H20	31.880	25.300	25.950	 H	1	A591	0.000	
70	 H21	22.660	32.180	29.340	 H	1	A591	0.000	
71	 H22	24.180	31.410	28.910	 H	1	A591	0.000	
72	 H24	26.180	22.920	28.630	 H	1	A591	0.000	
73	 H25	22.980	25.590	30.400	 H	1	A591	0.000	
74	 H26	28.710	26.780	26.820	 H	1	A591	0.000	
75	 H27	31.390	22.970	25.730	 H	1	A591	0.000	
76	 H28	25.990	28.680	25.880	 H	1	A591	0.000	
77	 H29	27.110	30.660	24.980	 H	1	A591	0.000	
78	 H30	29.700	30.780	28.440	 H	1	A591	0.000	
79	 H31	25.220	29.720	28.840	 H	1	A591	0.000	
80	 H32	21.260	31.250	31.090	 H	1	A591	0.000	
81	 H36	28.650	27.490	31.090	 H	1	A591	0.000	
@<TRIPOS>BOND
1 1 42 1
2 1 43 1
3 1 2 1
4 2 11 1
5 2 44 1
6 3 12 1
7 3 14 1
8 3 16 1
9 1 4 1
10 4 75 1
11 5 31 1
12 5 39 1
13 6 18 1
14 6 20 1
15 6 22 1
16 4 7 1
17 7 45 1
18 8 81 1
19 7 9 1
20 9 15 1
21 9 11 1
22 11 13 1
23 13 72 1
24 15 17 1
25 15 74 1
26 17 19 1
27 17 21 1
28 13 19 1
29 19 47 1
30 21 32 1
31 21 23 1
32 23 26 1
33 23 24 1
34 24 25 1
35 25 73 1
36 26 27 1
37 26 79 1
38 27 28 1
39 27 29 1
40 5 28 1
41 25 28 1
42 29 46 1
43 29 30 1
44 30 80 1
45 30 31 1
46 31 40 1
47 31 41 1
48 32 33 1
49 32 37 1
50 33 34 1
51 33 76 1
52 34 35 1
53 34 77 1
54 35 36 1
55 35 49 1
56 36 37 1
57 36 78 1
58 37 38 1
59 8 38 1
60 38 48 1
61 39 65 1
62 39 66 1
63 39 67 1
64 40 53 1
65 40 54 1
66 40 55 1
67 41 50 1
68 41 51 1
69 41 52 1
70 42 56 1
71 42 57 1
72 42 58 1
73 43 59 1
74 43 60 1
75 43 61 1
76 44 62 1
77 44 63 1
78 44 64 1
79 3 45 1
80 45 68 1
81 45 69 1
82 6 46 1
83 46 70 1
84 46 71 1
85 24 47 1
86 10 49 1
@<TRIPOS>SUBSTRUCTURE
1	A591	1	GROUP	1 ****	A59
