# created with PyMOL 2.3.3
@<TRIPOS>MOLECULE
A64_L1R
94 97 1                 
SMALL
USER_CHARGES
@<TRIPOS>ATOM
1	  C1	21.800	27.470	27.260	C.3	1	A641	0.000	
2	  N1	24.150	30.860	26.960	N.3	1	A641	0.000	
3	  S1	25.130	34.640	21.720	S.3	1	A641	0.000	
4	  C2	21.420	28.420	26.290	C.3	1	A641	0.000	
5	  N2	32.020	34.080	32.050	N.3	1	A641	0.000	
6	  S2	30.760	40.390	32.950	S.3	1	A641	0.000	
7	  C3	22.160	29.600	26.120	C.3	1	A641	0.000	
8	  O3	29.810	41.050	33.790	 O	1	A641	0.000	
9	  S3	20.860	25.990	27.490	S.3	1	A641	0.000	
10	  C4	23.300	29.800	26.920	C.3	1	A641	0.000	
11	  O4	32.120	40.650	33.280	 O	1	A641	0.000	
12	  S4	36.140	31.350	35.310	S.3	1	A641	0.000	
13	  C5	23.690	28.850	27.860	C.3	1	A641	0.000	
14	  O5	26.210	35.190	22.480	 O	1	A641	0.000	
15	  C6	22.940	27.680	28.050	C.3	1	A641	0.000	
16	  O6	30.480	40.560	31.560	 O	1	A641	0.000	
17	  C7	24.950	29.280	28.580	C.3	1	A641	0.000	
18	  O7	28.205	26.600	27.624	 O	1	A641	0.000	
19	  C8	26.160	28.360	28.210	C.3	1	A641	0.000	
20	  O8	19.510	26.190	27.060	 O	1	A641	0.000	
21	  C9	26.170	31.640	28.310	C.3	1	A641	0.000	
22	  O9	21.420	25.270	26.380	 O	1	A641	0.000	
23	 C10	27.140	31.490	29.230	C.3	1	A641	0.000	
24	 O10	35.950	31.860	36.650	 O	1	A641	0.000	
25	 C11	30.080	33.270	30.890	C.3	1	A641	0.000	
26	 O11	35.950	29.940	35.140	 O	1	A641	0.000	
27	 C12	34.910	32.240	34.390	C.3	1	A641	0.000	
28	 O12	21.210	25.330	28.720	 O	1	A641	0.000	
29	 C13	35.040	33.630	34.180	C.3	1	A641	0.000	
30	 O13	37.400	32.010	35.090	 O	1	A641	0.000	
31	 C14	34.100	34.330	33.410	C.3	1	A641	0.000	
32	 C15	33.020	33.630	32.850	C.3	1	A641	0.000	
33	 C16	32.870	32.270	33.060	C.3	1	A641	0.000	
34	 C17	33.810	31.550	33.830	C.3	1	A641	0.000	
35	 C18	31.140	33.080	31.710	C.3	1	A641	0.000	
36	 C19	31.610	31.770	32.380	C.3	1	A641	0.000	
37	 C20	31.940	30.650	31.360	C.3	1	A641	0.000	
38	 C21	23.940	32.050	26.120	C.3	1	A641	0.000	
39	 C22	31.990	35.480	31.610	C.3	1	A641	0.000	
40	 C23	31.230	36.340	32.650	C.3	1	A641	0.000	
41	 C24	31.350	37.830	32.290	C.3	1	A641	0.000	
42	 C25	30.530	38.680	33.270	C.3	1	A641	0.000	
43	 C26	24.670	29.360	30.100	C.3	1	A641	0.000	
44	 C27	25.130	30.670	27.930	C.3	1	A641	0.000	
45	 C28	30.630	31.240	33.450	C.3	1	A641	0.000	
46	 C29	28.120	32.490	29.600	C.3	1	A641	0.000	
47	 C30	29.100	32.270	30.480	C.3	1	A641	0.000	
48	 C31	24.470	31.860	24.690	C.3	1	A641	0.000	
49	 C32	24.490	33.220	23.960	C.3	1	A641	0.000	
50	 C33	24.890	33.070	22.470	C.3	1	A641	0.000	
51	 C34	26.160	26.930	28.820	C.3	1	A641	0.000	
52	 O91	25.550	34.330	20.390	 O	1	A641	0.000	
53	 O92	23.870	35.320	21.820	 O	1	A641	0.000	
54	 C99	27.357	26.137	28.380	C.3	1	A641	0.000	
55	  H1	20.530	28.240	25.680	 H	1	A641	0.000	
56	  H2	21.850	30.340	25.380	 H	1	A641	0.000	
57	  H3	23.230	26.950	28.800	 H	1	A641	0.000	
58	  H4	26.200	28.270	27.120	 H	1	A641	0.000	
59	  H5	27.080	28.850	28.490	 H	1	A641	0.000	
60	  H6	26.140	32.590	27.790	 H	1	A641	0.000	
61	  H7	27.220	30.560	29.770	 H	1	A641	0.000	
62	  H8	29.880	34.260	30.480	 H	1	A641	0.000	
63	  H9	35.880	34.160	34.620	 H	1	A641	0.000	
64	 H10	34.230	35.400	33.250	 H	1	A641	0.000	
65	 H11	33.690	30.480	34.000	 H	1	A641	0.000	
66	 H12	32.560	29.880	31.830	 H	1	A641	0.000	
67	 H13	32.500	31.060	30.520	 H	1	A641	0.000	
68	 H14	31.050	30.170	30.980	 H	1	A641	0.000	
69	 H15	24.460	32.900	26.570	 H	1	A641	0.000	
70	 H16	22.880	32.300	26.090	 H	1	A641	0.000	
71	 H17	33.010	35.860	31.500	 H	1	A641	0.000	
72	 H18	31.520	35.580	30.630	 H	1	A641	0.000	
73	 H19	31.640	36.170	33.640	 H	1	A641	0.000	
74	 H20	30.180	36.040	32.670	 H	1	A641	0.000	
75	 H21	32.400	38.130	32.330	 H	1	A641	0.000	
76	 H22	31.000	37.990	31.270	 H	1	A641	0.000	
77	 H23	30.840	38.510	34.300	 H	1	A641	0.000	
78	 H24	29.460	38.480	33.170	 H	1	A641	0.000	
79	 H25	24.320	28.400	30.490	 H	1	A641	0.000	
80	 H26	25.550	29.640	30.660	 H	1	A641	0.000	
81	 H27	23.890	30.100	30.300	 H	1	A641	0.000	
82	 H28	31.070	30.390	33.990	 H	1	A641	0.000	
83	 H29	30.400	32.020	34.180	 H	1	A641	0.000	
84	 H30	29.690	30.900	33.020	 H	1	A641	0.000	
85	 H31	28.030	33.470	29.120	 H	1	A641	0.000	
86	 H32	29.160	31.280	30.930	 H	1	A641	0.000	
87	 H33	25.490	31.450	24.720	 H	1	A641	0.000	
88	 H34	23.840	31.150	24.150	 H	1	A641	0.000	
89	 H35	23.510	33.690	24.020	 H	1	A641	0.000	
90	 H36	25.200	33.880	24.470	 H	1	A641	0.000	
91	 H37	25.830	32.530	22.370	 H	1	A641	0.000	
92	 H38	24.110	32.560	21.910	 H	1	A641	0.000	
93	 H39	25.262	26.390	28.547	 H	1	A641	0.000	
94	 H40	26.211	26.961	29.913	 H	1	A641	0.000	
@<TRIPOS>BOND
1 1 4 1
2 1 9 1
3 1 15 1
4 2 10 1
5 2 38 1
6 2 44 1
7 3 14 1
8 3 50 1
9 3 52 1
10 3 53 1
11 4 7 1
12 4 55 1
13 5 32 1
14 5 35 1
15 5 39 1
16 6 8 1
17 6 11 1
18 6 16 1
19 6 42 1
20 7 10 1
21 7 56 1
22 9 20 1
23 9 22 1
24 9 28 1
25 10 13 1
26 12 24 1
27 12 26 1
28 12 27 1
29 12 30 1
30 13 15 1
31 13 17 1
32 15 57 1
33 17 19 1
34 17 43 1
35 17 44 1
36 18 54 1
37 19 51 1
38 19 58 1
39 19 59 1
40 21 23 1
41 21 44 1
42 21 60 1
43 23 46 1
44 23 61 1
45 25 35 1
46 25 47 1
47 25 62 1
48 27 29 1
49 27 34 1
50 29 31 1
51 29 63 1
52 31 32 1
53 31 64 1
54 32 33 1
55 33 34 1
56 33 36 1
57 34 65 1
58 35 36 1
59 36 37 1
60 36 45 1
61 37 66 1
62 37 67 1
63 37 68 1
64 38 48 1
65 38 69 1
66 38 70 1
67 39 40 1
68 39 71 1
69 39 72 1
70 40 41 1
71 40 73 1
72 40 74 1
73 41 42 1
74 41 75 1
75 41 76 1
76 42 77 1
77 42 78 1
78 43 79 1
79 43 80 1
80 43 81 1
81 45 82 1
82 45 83 1
83 45 84 1
84 46 47 1
85 46 85 1
86 47 86 1
87 48 49 1
88 48 87 1
89 48 88 1
90 49 50 1
91 49 89 1
92 49 90 1
93 50 91 1
94 50 92 1
95 51 54 1
96 51 93 1
97 51 94 1
@<TRIPOS>SUBSTRUCTURE
1	A641	1	GROUP	1 ****	A64
