# created with PyMOL 2.3.3
@<TRIPOS>MOLECULE
C3W
75 78 1                 
SMALL
USER_CHARGES
@<TRIPOS>ATOM
1	  C1	22.690	23.840	24.800	C.3	1	C3W 	0.000	
2	  N1	23.540	27.890	24.370	N.3	1	C3W 	0.000	
3	  S1	22.340	22.120	25.120	S.3	1	C3W 	0.000	
4	  C2	21.810	24.610	24.000	C.3	1	C3W 	0.000	
5	  N2	28.580	32.350	27.430	N.3	1	C3W 	0.000	
6	  S2	33.870	31.470	29.910	S.3	1	C3W 	0.000	
7	  C3	22.020	25.980	23.780	C.3	1	C3W 	0.000	
8	  O3	22.620	21.990	26.520	O.3	1	C3W 	0.000	
9	  C4	23.130	26.590	24.390	C.3	1	C3W 	0.000	
10	  O4	34.450	32.720	30.320	O.3	1	C3W 	0.000	
11	  C5	24.020	25.840	25.160	C.3	1	C3W 	0.000	
12	  O5	33.460	30.490	30.870	O.3	1	C3W 	0.000	
13	  C6	23.810	24.470	25.370	C.3	1	C3W 	0.000	
14	  O6	34.540	30.590	28.990	O.3	1	C3W 	0.000	
15	  C7	24.690	28.050	25.130	C.3	1	C3W 	0.000	
16	  O7	21.090	21.740	24.530	O.3	1	C3W 	0.000	
17	  C8	25.140	26.710	25.710	C.3	1	C3W 	0.000	
18	  C9	26.510	26.230	25.160	C.3	1	C3W 	0.000	
19	 C10	25.350	29.340	25.390	C.3	1	C3W 	0.000	
20	 C11	26.460	29.540	26.090	C.3	1	C3W 	0.000	
21	 C12	27.000	30.850	26.430	C.3	1	C3W 	0.000	
22	 C13	32.320	31.810	29.130	C.3	1	C3W 	0.000	
23	 C14	31.860	33.140	28.990	C.3	1	C3W 	0.000	
24	 C15	30.610	33.420	28.420	C.3	1	C3W 	0.000	
25	 C16	29.820	32.340	28.000	C.3	1	C3W 	0.000	
26	 C17	30.260	31.040	28.120	C.3	1	C3W 	0.000	
27	 C18	31.510	30.740	28.680	C.3	1	C3W 	0.000	
28	 C19	28.150	31.100	27.070	C.3	1	C3W 	0.000	
29	 C20	29.220	30.090	27.580	C.3	1	C3W 	0.000	
30	 C21	29.830	29.210	26.480	C.3	1	C3W 	0.000	
31	 C22	22.800	28.950	23.660	C.3	1	C3W 	0.000	
32	 C23	27.810	33.600	27.300	C.3	1	C3W 	0.000	
33	 C24	28.010	34.260	25.930	C.3	1	C3W 	0.000	
34	 C25	27.210	35.570	25.890	C.3	1	C3W 	0.000	
35	 C26	27.360	36.310	24.540	C.3	1	C3W 	0.000	
36	 C27	26.590	37.650	24.580	C.3	1	C3W 	0.000	
37	 C29	25.130	26.700	27.260	C.3	1	C3W 	0.000	
38	 C30	28.710	29.220	28.740	C.3	1	C3W 	0.000	
39	 O91	27.320	38.010	22.320	O.3	1	C3W 	0.000	
40	 O92	23.550	21.470	24.690	O.3	1	C3W 	0.000	
41	 C99	26.760	38.430	23.320	C.3	1	C3W 	0.000	
42	  H1	20.940	24.130	23.540	 H	1	C3W 	0.000	
43	  H2	21.320	26.540	23.180	 H	1	C3W 	0.000	
44	  H3	24.500	23.890	25.980	 H	1	C3W 	0.000	
45	  H4	26.520	26.250	24.070	 H	1	C3W 	0.000	
46	  H5	27.340	26.840	25.520	 H	1	C3W 	0.000	
47	  H6	26.700	25.210	25.480	 H	1	C3W 	0.000	
48	  H7	24.820	30.220	25.020	 H	1	C3W 	0.000	
49	  H8	27.000	28.700	26.490	 H	1	C3W 	0.000	
50	  H9	26.340	31.660	26.120	 H	1	C3W 	0.000	
51	 H10	32.490	33.960	29.330	 H	1	C3W 	0.000	
52	 H11	30.270	34.440	28.330	 H	1	C3W 	0.000	
53	 H12	31.850	29.710	28.790	 H	1	C3W 	0.000	
54	 H13	29.110	28.520	26.060	 H	1	C3W 	0.000	
55	 H14	30.660	28.620	26.880	 H	1	C3W 	0.000	
56	 H15	30.230	29.830	25.670	 H	1	C3W 	0.000	
57	 H16	22.720	29.830	24.290	 H	1	C3W 	0.000	
58	 H17	21.790	28.630	23.400	 H	1	C3W 	0.000	
59	 H18	23.330	29.230	22.740	 H	1	C3W 	0.000	
60	 H19	26.750	33.390	27.470	 H	1	C3W 	0.000	
61	 H20	28.110	34.300	28.090	 H	1	C3W 	0.000	
62	 H21	27.650	33.580	25.140	 H	1	C3W 	0.000	
63	 H22	29.070	34.450	25.760	 H	1	C3W 	0.000	
64	 H23	26.150	35.360	26.060	 H	1	C3W 	0.000	
65	 H24	27.550	36.230	26.690	 H	1	C3W 	0.000	
66	 H25	26.960	35.680	23.740	 H	1	C3W 	0.000	
67	 H26	28.410	36.500	24.350	 H	1	C3W 	0.000	
68	 H27	25.520	37.450	24.720	 H	1	C3W 	0.000	
69	 H28	26.930	38.240	25.430	 H	1	C3W 	0.000	
70	 H29	25.170	25.680	27.630	 H	1	C3W 	0.000	
71	 H30	25.980	27.240	27.690	 H	1	C3W 	0.000	
72	 H31	24.220	27.160	27.640	 H	1	C3W 	0.000	
73	 H32	28.270	29.840	29.520	 H	1	C3W 	0.000	
74	 H33	27.960	28.500	28.410	 H	1	C3W 	0.000	
75	 H34	29.530	28.660	29.190	 H	1	C3W 	0.000	
@<TRIPOS>BOND
1 1 3 1
2 1 4 1
3 1 13 1
4 2 15 1
5 2 31 1
6 3 8 1
7 3 16 1
8 3 40 1
9 4 42 1
10 5 25 1
11 5 32 1
12 6 10 1
13 6 12 1
14 6 14 1
15 4 7 1
16 7 43 1
17 2 9 1
18 7 9 1
19 9 11 1
20 11 17 1
21 11 13 1
22 13 44 1
23 15 17 1
24 15 19 1
25 17 18 1
26 17 37 1
27 18 45 1
28 18 46 1
29 18 47 1
30 19 20 1
31 19 48 1
32 20 21 1
33 20 49 1
34 21 28 1
35 21 50 1
36 6 22 1
37 22 27 1
38 22 23 1
39 23 51 1
40 23 24 1
41 24 52 1
42 24 25 1
43 25 26 1
44 26 29 1
45 26 27 1
46 27 53 1
47 5 28 1
48 28 29 1
49 29 30 1
50 29 38 1
51 30 54 1
52 30 55 1
53 30 56 1
54 31 57 1
55 31 58 1
56 31 59 1
57 32 33 1
58 32 60 1
59 32 61 1
60 33 34 1
61 33 62 1
62 33 63 1
63 34 35 1
64 34 64 1
65 34 65 1
66 35 36 1
67 35 66 1
68 35 67 1
69 36 41 1
70 36 68 1
71 36 69 1
72 37 70 1
73 37 71 1
74 37 72 1
75 38 73 1
76 38 74 1
77 38 75 1
78 39 41 1
@<TRIPOS>SUBSTRUCTURE
1	C3W 	1	GROUP	1 ****	C3W
