# created with PyMOL 2.3.3
@<TRIPOS>MOLECULE
C55_L1R
85 90 1                 
SMALL
USER_CHARGES
@<TRIPOS>ATOM
1	  C1	23.670	21.860	32.850	C.3	1	C551	0.000	
2	  N1	27.100	24.060	32.150	N.3	1	C551	0.000	
3	  C2	24.760	21.640	33.710	C.3	1	C551	0.000	
4	  N2	30.370	30.820	25.770	N.3	1	C551	0.000	
5	  C3	25.950	22.350	33.510	C.3	1	C551	0.000	
6	  C4	26.030	23.260	32.470	C.3	1	C551	0.000	
7	  C5	24.970	23.490	31.590	C.3	1	C551	0.000	
8	  C6	23.760	22.780	31.770	C.3	1	C551	0.000	
9	  C7	26.820	24.830	31.020	C.3	1	C551	0.000	
10	  C8	25.380	24.530	30.550	C.3	1	C551	0.000	
11	  C9	24.490	25.770	30.640	C.3	1	C551	0.000	
12	 C10	27.760	25.780	30.420	C.3	1	C551	0.000	
13	 C11	29.450	29.190	27.250	C.3	1	C551	0.000	
14	 C12	29.270	32.310	22.070	C.3	1	C551	0.000	
15	 C13	30.480	32.780	22.600	C.3	1	C551	0.000	
16	 C14	30.920	32.320	23.850	C.3	1	C551	0.000	
17	 C15	30.130	31.390	24.550	C.3	1	C551	0.000	
18	 C16	28.920	30.920	24.030	C.3	1	C551	0.000	
19	 C17	28.470	31.380	22.780	C.3	1	C551	0.000	
20	 C18	29.400	29.920	26.120	C.3	1	C551	0.000	
21	 C19	28.310	29.930	25.020	C.3	1	C551	0.000	
22	 C20	26.960	30.440	25.550	C.3	1	C551	0.000	
23	 C21	31.560	31.210	26.570	C.3	1	C551	0.000	
24	 C22	32.760	30.260	26.290	C.3	1	C551	0.000	
25	 C23	34.003	30.684	27.106	C.3	1	C551	0.000	
26	 C24	35.202	29.726	26.880	C.3	1	C551	0.000	
27	 C25	36.465	30.142	27.668	C.3	1	C551	0.000	
28	 C27	22.640	22.950	30.940	C.3	1	C551	0.000	
29	 C28	21.460	22.220	31.170	C.3	1	C551	0.000	
30	 C29	21.380	21.320	32.250	C.3	1	C551	0.000	
31	 C30	22.490	21.140	33.080	C.3	1	C551	0.000	
32	 C31	28.860	32.800	20.820	C.3	1	C551	0.000	
33	 C32	27.650	32.370	20.260	C.3	1	C551	0.000	
34	 C33	26.840	31.450	20.950	C.3	1	C551	0.000	
35	 C34	27.250	30.960	22.200	C.3	1	C551	0.000	
36	 C35	25.370	23.910	29.140	C.3	1	C551	0.000	
37	 C36	28.150	28.540	24.370	C.3	1	C551	0.000	
38	 C38	27.600	26.560	29.330	C.3	1	C551	0.000	
39	 C39	28.600	27.490	28.830	C.3	1	C551	0.000	
40	 C40	28.460	28.230	27.730	C.3	1	C551	0.000	
41	 C41	28.330	24.040	32.950	C.3	1	C551	0.000	
42	 O91	37.696	28.351	26.617	O.3	1	C551	0.000	
43	 C99	37.686	29.316	27.359	C.3	1	C551	0.000	
44	  H1	24.680	20.930	34.530	 H	1	C551	0.000	
45	  H2	26.790	22.180	34.180	 H	1	C551	0.000	
46	  H3	24.880	26.590	30.030	 H	1	C551	0.000	
47	  H4	23.480	25.580	30.310	 H	1	C551	0.000	
48	  H5	24.450	26.130	31.670	 H	1	C551	0.000	
49	  H6	28.720	25.880	30.920	 H	1	C551	0.000	
50	  H7	30.310	29.280	27.910	 H	1	C551	0.000	
51	  H8	31.090	33.490	22.050	 H	1	C551	0.000	
52	  H9	31.860	32.670	24.260	 H	1	C551	0.000	
53	 H10	26.550	29.800	26.340	 H	1	C551	0.000	
54	 H11	26.200	30.500	24.780	 H	1	C551	0.000	
55	 H12	27.080	31.440	25.980	 H	1	C551	0.000	
56	 H13	31.840	32.240	26.350	 H	1	C551	0.000	
57	 H14	31.320	31.180	27.630	 H	1	C551	0.000	
58	 H15	33.015	30.274	25.219	 H	1	C551	0.000	
59	 H16	32.485	29.238	26.546	 H	1	C551	0.000	
60	 H17	34.276	31.709	26.841	 H	1	C551	0.000	
61	 H18	33.748	30.663	28.169	 H	1	C551	0.000	
62	 H19	35.436	29.657	25.811	 H	1	C551	0.000	
63	 H20	34.908	28.733	27.205	 H	1	C551	0.000	
64	 H21	36.686	31.196	27.457	 H	1	C551	0.000	
65	 H22	36.271	30.066	28.732	 H	1	C551	0.000	
66	 H23	22.660	23.640	30.110	 H	1	C551	0.000	
67	 H24	20.590	22.360	30.530	 H	1	C551	0.000	
68	 H25	20.470	20.760	32.440	 H	1	C551	0.000	
69	 H26	22.420	20.430	33.910	 H	1	C551	0.000	
70	 H27	29.480	33.510	20.280	 H	1	C551	0.000	
71	 H28	27.330	32.740	19.290	 H	1	C551	0.000	
72	 H29	25.910	31.120	20.520	 H	1	C551	0.000	
73	 H30	26.600	30.260	22.700	 H	1	C551	0.000	
74	 H31	24.370	23.650	28.820	 H	1	C551	0.000	
75	 H32	25.780	24.590	28.400	 H	1	C551	0.000	
76	 H33	25.980	23.010	29.130	 H	1	C551	0.000	
77	 H34	29.110	28.210	23.970	 H	1	C551	0.000	
78	 H35	27.820	27.780	25.080	 H	1	C551	0.000	
79	 H36	27.440	28.530	23.550	 H	1	C551	0.000	
80	 H41	26.670	26.520	28.760	 H	1	C551	0.000	
81	 H42	29.510	27.570	29.420	 H	1	C551	0.000	
82	 H43	27.540	28.120	27.170	 H	1	C551	0.000	
83	 H44	28.090	24.000	34.020	 H	1	C551	0.000	
84	 H45	28.940	23.180	32.690	 H	1	C551	0.000	
85	 H46	28.920	24.950	32.800	 H	1	C551	0.000	
@<TRIPOS>BOND
1 1 3 1
2 1 8 1
3 1 31 1
4 2 9 1
5 2 41 1
6 3 44 1
7 4 17 1
8 4 23 1
9 3 5 1
10 5 45 1
11 2 6 1
12 5 6 1
13 6 7 1
14 7 10 1
15 7 8 1
16 8 28 1
17 9 10 1
18 9 12 1
19 10 11 1
20 10 36 1
21 11 46 1
22 11 47 1
23 11 48 1
24 12 38 1
25 12 49 1
26 13 20 1
27 13 50 1
28 14 19 1
29 14 32 1
30 14 15 1
31 15 51 1
32 15 16 1
33 16 52 1
34 16 17 1
35 17 18 1
36 18 21 1
37 18 19 1
38 19 35 1
39 4 20 1
40 20 21 1
41 21 22 1
42 21 37 1
43 22 53 1
44 22 54 1
45 22 55 1
46 23 24 1
47 23 56 1
48 23 57 1
49 24 25 1
50 24 58 1
51 24 59 1
52 25 26 1
53 25 60 1
54 25 61 1
55 26 27 1
56 26 62 1
57 26 63 1
58 27 43 1
59 27 64 1
60 27 65 1
61 28 29 1
62 28 66 1
63 29 30 1
64 29 67 1
65 30 31 1
66 30 68 1
67 31 69 1
68 32 70 1
69 32 33 1
70 33 71 1
71 33 34 1
72 34 72 1
73 34 35 1
74 35 73 1
75 36 74 1
76 36 75 1
77 36 76 1
78 37 77 1
79 37 78 1
80 37 79 1
81 38 39 1
82 38 80 1
83 39 40 1
84 39 81 1
85 13 40 1
86 40 82 1
87 41 83 1
88 41 84 1
89 41 85 1
90 42 43 1
@<TRIPOS>SUBSTRUCTURE
1	C551	1	GROUP	1 ****	C55
