# created with PyMOL 2.3.3
@<TRIPOS>MOLECULE
C5W
79 82 1                 
SMALL
USER_CHARGES
@<TRIPOS>ATOM
1	  C1	26.310	30.080	21.590	C.3	1	C5W1	0.000	
2	  N1	26.940	29.210	25.590	N.3	1	C5W1	0.000	
3	  S1	26.030	30.340	19.870	S.3	1	C5W1	0.000	
4	  C2	26.470	31.170	22.460	C.3	1	C5W1	0.000	
5	  N2	27.130	21.660	31.660	N.3	1	C5W1	0.000	
6	  S2	27.660	15.790	31.620	S.3	1	C5W1	0.000	
7	  C3	26.700	30.990	23.820	C.3	1	C5W1	0.000	
8	  O3	27.370	30.100	19.410	O.3	1	C5W1	0.000	
9	  C4	26.740	29.680	24.320	C.3	1	C5W1	0.000	
10	  O4	28.080	15.350	30.320	O.3	1	C5W1	0.000	
11	  C5	26.570	28.590	23.470	C.3	1	C5W1	0.000	
12	  O5	28.250	15.300	32.830	O.3	1	C5W1	0.000	
13	  C6	26.360	28.780	22.100	C.3	1	C5W1	0.000	
14	  O6	26.270	15.410	31.720	O.3	1	C5W1	0.000	
15	  C7	26.890	27.820	25.620	C.3	1	C5W1	0.000	
16	  O7	25.340	29.210	19.310	O.3	1	C5W1	0.000	
17	  C8	26.640	27.290	24.240	C.3	1	C5W1	0.000	
18	  C9	27.810	26.440	23.730	C.3	1	C5W1	0.000	
19	 C10	27.020	27.040	26.840	C.3	1	C5W1	0.000	
20	 C11	26.950	25.720	27.010	C.3	1	C5W1	0.000	
21	 C12	27.050	23.260	29.930	C.3	1	C5W1	0.000	
22	 C13	27.480	17.540	31.680	C.3	1	C5W1	0.000	
23	 C14	27.490	18.190	32.920	C.3	1	C5W1	0.000	
24	 C15	27.370	19.570	33.030	C.3	1	C5W1	0.000	
25	 C16	27.250	20.320	31.860	C.3	1	C5W1	0.000	
26	 C17	27.250	19.680	30.610	C.3	1	C5W1	0.000	
27	 C18	27.360	18.290	30.510	C.3	1	C5W1	0.000	
28	 C19	27.090	21.990	30.350	C.3	1	C5W1	0.000	
29	 C20	27.120	20.720	29.520	C.3	1	C5W1	0.000	
30	 C21	28.320	20.640	28.570	C.3	1	C5W1	0.000	
31	 C22	27.160	30.100	26.720	C.3	1	C5W1	0.000	
32	 C23	27.110	22.580	32.800	C.3	1	C5W1	0.000	
33	 C24	28.520	23.080	33.120	C.3	1	C5W1	0.000	
34	 C25	28.550	24.037	34.329	C.3	1	C5W1	0.000	
35	 C26	29.973	24.567	34.625	C.3	1	C5W1	0.000	
36	 C27	29.995	25.561	35.800	C.3	1	C5W1	0.000	
37	 C29	25.310	26.540	24.120	C.3	1	C5W1	0.000	
38	 C30	25.820	20.490	28.730	C.3	1	C5W1	0.000	
39	 C32	27.040	25.090	28.310	C.3	1	C5W1	0.000	
40	 C33	26.980	23.780	28.580	C.3	1	C5W1	0.000	
41	 O91	32.360	25.724	35.465	O.3	1	C5W1	0.000	
42	 O92	25.690	31.700	19.570	O.3	1	C5W1	0.000	
43	 C99	31.370	26.119	36.048	C.3	1	C5W1	0.000	
44	  H1	26.430	32.180	22.060	 H	1	C5W1	0.000	
45	  H2	26.820	31.850	24.470	 H	1	C5W1	0.000	
46	  H3	26.240	27.930	21.440	 H	1	C5W1	0.000	
47	  H4	27.670	26.160	22.680	 H	1	C5W1	0.000	
48	  H5	28.750	26.990	23.810	 H	1	C5W1	0.000	
49	  H6	27.910	25.510	24.310	 H	1	C5W1	0.000	
50	  H7	27.180	27.630	27.740	 H	1	C5W1	0.000	
51	  H8	26.780	25.050	26.170	 H	1	C5W1	0.000	
52	  H9	27.060	24.060	30.660	 H	1	C5W1	0.000	
53	 H10	27.580	17.600	33.830	 H	1	C5W1	0.000	
54	 H11	27.380	20.050	34.000	 H	1	C5W1	0.000	
55	 H12	27.360	17.810	29.540	 H	1	C5W1	0.000	
56	 H13	28.230	21.350	27.750	 H	1	C5W1	0.000	
57	 H14	28.400	19.640	28.130	 H	1	C5W1	0.000	
58	 H15	29.250	20.840	29.110	 H	1	C5W1	0.000	
59	 H16	26.550	29.780	27.570	 H	1	C5W1	0.000	
60	 H17	26.900	31.130	26.490	 H	1	C5W1	0.000	
61	 H18	28.210	30.050	27.010	 H	1	C5W1	0.000	
62	 H19	26.450	23.420	32.590	 H	1	C5W1	0.000	
63	 H20	26.690	22.090	33.680	 H	1	C5W1	0.000	
64	 H21	28.962	23.584	32.263	 H	1	C5W1	0.000	
65	 H22	29.164	22.233	33.346	 H	1	C5W1	0.000	
66	 H23	27.876	24.870	34.160	 H	1	C5W1	0.000	
67	 H24	28.188	23.489	35.204	 H	1	C5W1	0.000	
68	 H25	30.362	25.070	33.734	 H	1	C5W1	0.000	
69	 H26	30.648	23.742	34.832	 H	1	C5W1	0.000	
70	 H27	29.325	26.388	35.561	 H	1	C5W1	0.000	
71	 H28	29.607	25.083	36.703	 H	1	C5W1	0.000	
72	 H29	25.090	26.300	23.080	 H	1	C5W1	0.000	
73	 H30	25.310	25.610	24.680	 H	1	C5W1	0.000	
74	 H31	24.490	27.160	24.500	 H	1	C5W1	0.000	
75	 H32	25.850	19.510	28.240	 H	1	C5W1	0.000	
76	 H33	24.960	20.500	29.410	 H	1	C5W1	0.000	
77	 H34	25.660	21.250	27.960	 H	1	C5W1	0.000	
78	 H39	27.150	25.770	29.150	 H	1	C5W1	0.000	
79	 H40	26.860	23.080	27.750	 H	1	C5W1	0.000	
@<TRIPOS>BOND
1 1 3 1
2 1 4 1
3 1 13 1
4 2 15 1
5 2 31 1
6 3 8 1
7 3 16 1
8 3 42 1
9 4 44 1
10 5 25 1
11 5 32 1
12 6 10 1
13 6 12 1
14 6 14 1
15 4 7 1
16 7 45 1
17 2 9 1
18 7 9 1
19 9 11 1
20 11 17 1
21 11 13 1
22 13 46 1
23 15 17 1
24 15 19 1
25 17 18 1
26 17 37 1
27 18 47 1
28 18 48 1
29 18 49 1
30 19 20 1
31 19 50 1
32 20 39 1
33 20 51 1
34 21 28 1
35 21 52 1
36 6 22 1
37 22 27 1
38 22 23 1
39 23 53 1
40 23 24 1
41 24 54 1
42 24 25 1
43 25 26 1
44 26 29 1
45 26 27 1
46 27 55 1
47 5 28 1
48 28 29 1
49 29 30 1
50 29 38 1
51 30 56 1
52 30 57 1
53 30 58 1
54 31 59 1
55 31 60 1
56 31 61 1
57 32 33 1
58 32 62 1
59 32 63 1
60 33 34 1
61 33 64 1
62 33 65 1
63 34 35 1
64 34 66 1
65 34 67 1
66 35 36 1
67 35 68 1
68 35 69 1
69 36 43 1
70 36 70 1
71 36 71 1
72 37 72 1
73 37 73 1
74 37 74 1
75 38 75 1
76 38 76 1
77 38 77 1
78 39 40 1
79 39 78 1
80 21 40 1
81 40 79 1
82 41 43 1
@<TRIPOS>SUBSTRUCTURE
1	C5W1	1	GROUP	1 ****	C5W
