# created with PyMOL 2.3.3
@<TRIPOS>MOLECULE
C75_L1R
96 102 1                
SMALL
USER_CHARGES
@<TRIPOS>ATOM
1	  C1	30.300	37.090	24.640	C.3	1	C751	0.000	
2	  N1	30.750	35.290	28.340	N.3	1	C751	0.000	
3	  C2	31.020	37.810	25.610	C.3	1	C751	0.000	
4	  N2	25.310	24.990	32.160	N.3	1	C751	0.000	
5	  C3	31.210	37.260	26.890	C.3	1	C751	0.000	
6	  C4	30.670	36.000	27.170	C.3	1	C751	0.000	
7	  C5	29.950	35.280	26.220	C.3	1	C751	0.000	
8	  C6	29.750	35.820	24.920	C.3	1	C751	0.000	
9	  C7	30.090	34.070	28.210	C.3	1	C751	0.000	
10	  C8	29.490	33.950	26.810	C.3	1	C751	0.000	
11	  C9	30.100	32.770	26.030	C.3	1	C751	0.000	
12	 C10	29.990	33.060	29.280	C.3	1	C751	0.000	
13	 C11	26.730	26.820	31.530	C.3	1	C751	0.000	
14	 C12	22.040	23.160	30.430	C.3	1	C751	0.000	
15	 C13	22.410	22.700	31.710	C.3	1	C751	0.000	
16	 C14	23.520	23.260	32.360	C.3	1	C751	0.000	
17	 C15	24.230	24.290	31.710	C.3	1	C751	0.000	
18	 C16	23.870	24.750	30.450	C.3	1	C751	0.000	
19	 C17	22.760	24.180	29.780	C.3	1	C751	0.000	
20	 C18	25.720	25.950	31.280	C.3	1	C751	0.000	
21	 C19	24.810	25.880	30.030	C.3	1	C751	0.000	
22	 C20	25.630	25.480	28.780	C.3	1	C751	0.000	
23	 C21	25.880	24.720	33.500	C.3	1	C751	0.000	
24	 C22	25.170	25.560	34.570	C.3	1	C751	0.000	
25	 C23	25.780	25.320	35.960	C.3	1	C751	0.000	
26	 C24	25.050	26.150	37.040	C.3	1	C751	0.000	
27	 C25	25.630	25.870	38.430	C.3	1	C751	0.000	
28	 C27	29.050	35.130	23.910	C.3	1	C751	0.000	
29	 C28	28.880	35.710	22.640	C.3	1	C751	0.000	
30	 C29	29.420	36.970	22.370	C.3	1	C751	0.000	
31	 C30	30.130	37.660	23.360	C.3	1	C751	0.000	
32	 C31	20.920	22.580	29.810	C.3	1	C751	0.000	
33	 C32	20.510	23.010	28.540	C.3	1	C751	0.000	
34	 C33	21.230	24.010	27.880	C.3	1	C751	0.000	
35	 C34	22.350	24.600	28.490	C.3	1	C751	0.000	
36	 C35	27.940	33.900	26.870	C.3	1	C751	0.000	
37	 C36	24.020	27.200	29.830	C.3	1	C751	0.000	
38	 C38	28.160	28.830	30.960	C.3	1	C751	0.000	
39	 C39	27.220	27.890	30.670	C.3	1	C751	0.000	
40	 C40	31.460	35.790	29.520	C.3	1	C751	0.000	
41	 C41	29.330	31.890	29.230	C.3	1	C751	0.000	
42	 C42	29.210	30.850	30.250	C.3	1	C751	0.000	
43	 C43	28.400	29.800	30.050	C.3	1	C751	0.000	
44	 C44	29.960	31.010	31.560	C.3	1	C751	0.000	
45	 C45	30.210	29.630	32.180	C.3	1	C751	0.000	
46	 C46	28.890	28.840	32.290	C.3	1	C751	0.000	
47	 O91	24.060	27.470	39.300	O.3	1	C751	0.000	
48	 C99	24.930	26.640	39.510	C.3	1	C751	0.000	
49	  H1	31.430	38.790	25.370	 H	1	C751	0.000	
50	  H2	31.770	37.820	27.630	 H	1	C751	0.000	
51	  H3	29.520	32.540	25.140	 H	1	C751	0.000	
52	  H4	31.130	33.010	25.740	 H	1	C751	0.000	
53	  H5	30.130	31.870	26.620	 H	1	C751	0.000	
54	  H6	30.520	33.310	30.200	 H	1	C751	0.000	
55	  H7	27.260	26.740	32.480	 H	1	C751	0.000	
56	  H8	21.840	21.910	32.190	 H	1	C751	0.000	
57	  H9	23.800	22.910	33.350	 H	1	C751	0.000	
58	 H10	26.080	24.490	28.910	 H	1	C751	0.000	
59	 H11	26.440	26.180	28.580	 H	1	C751	0.000	
60	 H12	25.020	25.440	27.880	 H	1	C751	0.000	
61	 H13	25.780	23.650	33.740	 H	1	C751	0.000	
62	 H14	26.950	24.940	33.510	 H	1	C751	0.000	
63	 H15	24.100	25.310	34.590	 H	1	C751	0.000	
64	 H16	25.250	26.620	34.310	 H	1	C751	0.000	
65	 H17	25.720	24.260	36.210	 H	1	C751	0.000	
66	 H18	26.840	25.590	35.950	 H	1	C751	0.000	
67	 H19	23.990	25.890	37.030	 H	1	C751	0.000	
68	 H20	25.140	27.210	36.800	 H	1	C751	0.000	
69	 H21	25.570	24.800	38.640	 H	1	C751	0.000	
70	 H22	26.690	26.150	38.460	 H	1	C751	0.000	
71	 H23	28.610	34.160	24.080	 H	1	C751	0.000	
72	 H24	28.330	35.170	21.870	 H	1	C751	0.000	
73	 H25	29.300	37.420	21.390	 H	1	C751	0.000	
74	 H26	30.540	38.640	23.140	 H	1	C751	0.000	
75	 H27	20.360	21.790	30.320	 H	1	C751	0.000	
76	 H28	19.630	22.560	28.070	 H	1	C751	0.000	
77	 H29	20.920	24.340	26.890	 H	1	C751	0.000	
78	 H30	22.890	25.360	27.950	 H	1	C751	0.000	
79	 H31	27.490	34.060	25.900	 H	1	C751	0.000	
80	 H32	27.580	32.930	27.230	 H	1	C751	0.000	
81	 H33	27.570	34.670	27.540	 H	1	C751	0.000	
82	 H34	24.670	28.070	29.740	 H	1	C751	0.000	
83	 H35	23.410	27.180	28.930	 H	1	C751	0.000	
84	 H36	23.360	27.380	30.690	 H	1	C751	0.000	
85	 H41	26.760	27.960	29.690	 H	1	C751	0.000	
86	 H42	31.450	36.890	29.560	 H	1	C751	0.000	
87	 H43	30.980	35.430	30.440	 H	1	C751	0.000	
88	 H44	32.500	35.440	29.510	 H	1	C751	0.000	
89	 H45	28.810	31.630	28.310	 H	1	C751	0.000	
90	 H46	27.860	29.760	29.100	 H	1	C751	0.000	
91	 H47	29.380	31.630	32.260	 H	1	C751	0.000	
92	 H48	30.930	31.500	31.420	 H	1	C751	0.000	
93	 H49	30.910	29.080	31.540	 H	1	C751	0.000	
94	 H50	30.680	29.730	33.160	 H	1	C751	0.000	
95	 H51	29.130	27.830	32.620	 H	1	C751	0.000	
96	 H52	28.250	29.300	33.050	 H	1	C751	0.000	
@<TRIPOS>BOND
1 1 3 1
2 1 8 1
3 1 31 1
4 2 9 1
5 2 40 1
6 3 49 1
7 4 17 1
8 4 23 1
9 3 5 1
10 5 50 1
11 2 6 1
12 5 6 1
13 6 7 1
14 7 10 1
15 7 8 1
16 8 28 1
17 9 10 1
18 9 12 1
19 10 11 1
20 10 36 1
21 11 51 1
22 11 52 1
23 11 53 1
24 12 41 1
25 12 54 1
26 13 20 1
27 13 55 1
28 14 19 1
29 14 32 1
30 14 15 1
31 15 56 1
32 15 16 1
33 16 57 1
34 16 17 1
35 17 18 1
36 18 21 1
37 18 19 1
38 19 35 1
39 4 20 1
40 20 21 1
41 21 22 1
42 21 37 1
43 22 58 1
44 22 59 1
45 22 60 1
46 23 24 1
47 23 61 1
48 23 62 1
49 24 25 1
50 24 63 1
51 24 64 1
52 25 26 1
53 25 65 1
54 25 66 1
55 26 27 1
56 26 67 1
57 26 68 1
58 27 48 1
59 27 69 1
60 27 70 1
61 28 29 1
62 28 71 1
63 29 30 1
64 29 72 1
65 30 31 1
66 30 73 1
67 31 74 1
68 32 75 1
69 32 33 1
70 33 76 1
71 33 34 1
72 34 77 1
73 34 35 1
74 35 78 1
75 36 79 1
76 36 80 1
77 36 81 1
78 37 82 1
79 37 83 1
80 37 84 1
81 38 39 1
82 38 46 1
83 13 39 1
84 39 85 1
85 40 86 1
86 40 87 1
87 40 88 1
88 41 42 1
89 41 89 1
90 42 43 1
91 42 44 1
92 38 43 1
93 43 90 1
94 44 91 1
95 44 92 1
96 44 45 1
97 45 93 1
98 45 94 1
99 45 46 1
100 46 95 1
101 46 96 1
102 47 48 1
@<TRIPOS>SUBSTRUCTURE
1	C751	1	GROUP	1 ****	C75
