# created with PyMOL 2.3.3
@<TRIPOS>MOLECULE
C7N_L1R
84 88 1                 
SMALL
USER_CHARGES
@<TRIPOS>ATOM
1	  C1	19.380	24.750	20.430	C.3	1	C7N1	0.000	
2	  N1	21.340	27.510	22.820	N.3	1	C7N1	0.000	
3	  C2	18.600	25.810	20.940	C.3	1	C7N1	0.000	
4	  N2	33.230	27.510	26.080	N.3	1	C7N1	0.000	
5	  C3	19.190	26.800	21.750	C.3	1	C7N1	0.000	
6	  C4	20.550	26.690	22.040	C.3	1	C7N1	0.000	
7	  C5	21.320	25.650	21.540	C.3	1	C7N1	0.000	
8	  C6	20.750	24.660	20.730	C.3	1	C7N1	0.000	
9	  C7	22.760	25.770	22.010	C.3	1	C7N1	0.000	
10	  C8	23.700	25.930	20.800	C.3	1	C7N1	0.000	
11	  C9	23.750	27.680	23.600	C.3	1	C7N1	0.000	
12	 C10	25.040	27.280	23.690	C.3	1	C7N1	0.000	
13	 C11	30.910	27.700	25.520	C.3	1	C7N1	0.000	
14	 C12	36.050	24.550	25.470	C.3	1	C7N1	0.000	
15	 C13	36.470	25.680	26.190	C.3	1	C7N1	0.000	
16	 C14	35.580	26.740	26.440	C.3	1	C7N1	0.000	
17	 C15	34.260	26.640	25.960	C.3	1	C7N1	0.000	
18	 C16	33.850	25.520	25.250	C.3	1	C7N1	0.000	
19	 C17	34.730	24.460	24.990	C.3	1	C7N1	0.000	
20	 C18	32.080	27.030	25.490	C.3	1	C7N1	0.000	
21	 C19	32.400	25.670	24.830	C.3	1	C7N1	0.000	
22	 C20	32.330	25.720	23.280	C.3	1	C7N1	0.000	
23	 C21	20.790	28.680	23.510	C.3	1	C7N1	0.000	
24	 C22	33.400	28.780	26.790	C.3	1	C7N1	0.000	
25	 C23	33.970	29.850	25.840	C.3	1	C7N1	0.000	
26	 C24	34.140	31.210	26.540	C.3	1	C7N1	0.000	
27	 C25	34.753	32.280	25.608	C.3	1	C7N1	0.000	
28	 C26	34.992	33.644	26.312	C.3	1	C7N1	0.000	
29	 C28	23.140	24.520	22.850	C.3	1	C7N1	0.000	
30	 C29	22.660	27.040	22.850	C.3	1	C7N1	0.000	
31	 C30	31.550	24.490	25.360	C.3	1	C7N1	0.000	
32	 C32	28.440	27.890	25.060	C.3	1	C7N1	0.000	
33	 C33	29.640	27.280	24.930	C.3	1	C7N1	0.000	
34	 C34	26.130	27.890	24.450	C.3	1	C7N1	0.000	
35	 C35	27.370	27.390	24.400	C.3	1	C7N1	0.000	
36	 C36	25.820	29.120	25.290	C.3	1	C7N1	0.000	
37	 C37	28.260	29.130	25.940	C.3	1	C7N1	0.000	
38	 C38	26.820	29.220	26.460	C.3	1	C7N1	0.000	
39	 O91	35.810	34.380	24.209	 O	1	C7N1	0.000	
40	 C99	35.572	34.649	25.369	C.3	1	C7N1	0.000	
41	  H1	18.910	24.000	19.810	 H	1	C7N1	0.000	
42	  H2	17.540	25.860	20.700	 H	1	C7N1	0.000	
43	  H3	18.580	27.610	22.140	 H	1	C7N1	0.000	
44	  H4	21.350	23.840	20.340	 H	1	C7N1	0.000	
45	  H5	23.400	26.790	20.200	 H	1	C7N1	0.000	
46	  H6	24.740	26.060	21.100	 H	1	C7N1	0.000	
47	  H7	23.650	25.040	20.160	 H	1	C7N1	0.000	
48	  H8	23.470	28.590	24.120	 H	1	C7N1	0.000	
49	  H9	25.330	26.380	23.160	 H	1	C7N1	0.000	
50	 H10	30.860	28.660	26.020	 H	1	C7N1	0.000	
51	 H11	36.750	23.740	25.280	 H	1	C7N1	0.000	
52	 H12	37.500	25.740	26.550	 H	1	C7N1	0.000	
53	 H13	35.910	27.600	27.000	 H	1	C7N1	0.000	
54	 H14	34.410	23.580	24.440	 H	1	C7N1	0.000	
55	 H15	31.310	25.890	22.920	 H	1	C7N1	0.000	
56	 H16	32.680	24.780	22.840	 H	1	C7N1	0.000	
57	 H17	32.960	26.520	22.890	 H	1	C7N1	0.000	
58	 H18	21.380	28.930	24.390	 H	1	C7N1	0.000	
59	 H19	19.770	28.480	23.850	 H	1	C7N1	0.000	
60	 H20	20.770	29.540	22.830	 H	1	C7N1	0.000	
61	 H21	32.460	29.130	27.220	 H	1	C7N1	0.000	
62	 H22	34.090	28.640	27.630	 H	1	C7N1	0.000	
63	 H23	33.300	29.960	24.980	 H	1	C7N1	0.000	
64	 H24	34.930	29.510	25.450	 H	1	C7N1	0.000	
65	 H25	33.177	31.552	26.927	 H	1	C7N1	0.000	
66	 H26	34.808	31.094	27.391	 H	1	C7N1	0.000	
67	 H27	34.105	32.432	24.746	 H	1	C7N1	0.000	
68	 H28	35.707	31.917	25.227	 H	1	C7N1	0.000	
69	 H29	34.060	34.047	26.686	 H	1	C7N1	0.000	
70	 H30	35.671	33.526	27.158	 H	1	C7N1	0.000	
71	 H31	23.030	23.620	22.250	 H	1	C7N1	0.000	
72	 H32	24.160	24.560	23.210	 H	1	C7N1	0.000	
73	 H33	22.470	24.440	23.710	 H	1	C7N1	0.000	
74	 H34	31.470	24.540	26.450	 H	1	C7N1	0.000	
75	 H35	30.540	24.510	24.960	 H	1	C7N1	0.000	
76	 H36	32.010	23.540	25.110	 H	1	C7N1	0.000	
77	 H41	29.670	26.400	24.300	 H	1	C7N1	0.000	
78	 H42	27.530	26.500	23.780	 H	1	C7N1	0.000	
79	 H43	25.880	30.020	24.670	 H	1	C7N1	0.000	
80	 H44	24.820	29.080	25.720	 H	1	C7N1	0.000	
81	 H45	28.510	30.020	25.360	 H	1	C7N1	0.000	
82	 H46	28.920	29.100	26.810	 H	1	C7N1	0.000	
83	 H47	26.670	30.160	26.990	 H	1	C7N1	0.000	
84	 H48	26.640	28.400	27.160	 H	1	C7N1	0.000	
@<TRIPOS>BOND
1 1 3 1
2 1 8 1
3 1 41 1
4 2 6 1
5 2 23 1
6 2 30 1
7 3 5 1
8 3 42 1
9 4 17 1
10 4 20 1
11 4 24 1
12 5 6 1
13 5 43 1
14 6 7 1
15 7 8 1
16 7 9 1
17 8 44 1
18 9 10 1
19 9 29 1
20 9 30 1
21 10 45 1
22 10 46 1
23 10 47 1
24 11 12 1
25 11 30 1
26 11 48 1
27 12 34 1
28 12 49 1
29 13 20 1
30 13 33 1
31 13 50 1
32 14 15 1
33 14 19 1
34 14 51 1
35 15 16 1
36 15 52 1
37 16 17 1
38 16 53 1
39 17 18 1
40 18 19 1
41 18 21 1
42 19 54 1
43 20 21 1
44 21 22 1
45 21 31 1
46 22 55 1
47 22 56 1
48 22 57 1
49 23 58 1
50 23 59 1
51 23 60 1
52 24 25 1
53 24 61 1
54 24 62 1
55 25 26 1
56 25 63 1
57 25 64 1
58 26 27 1
59 26 65 1
60 26 66 1
61 27 28 1
62 27 67 1
63 27 68 1
64 28 40 1
65 28 69 1
66 28 70 1
67 29 71 1
68 29 72 1
69 29 73 1
70 31 74 1
71 31 75 1
72 31 76 1
73 32 33 1
74 32 35 1
75 32 37 1
76 33 77 1
77 34 35 1
78 34 36 1
79 35 78 1
80 36 38 1
81 36 79 1
82 36 80 1
83 37 38 1
84 37 81 1
85 37 82 1
86 38 83 1
87 38 84 1
88 39 40 1
@<TRIPOS>SUBSTRUCTURE
1	C7N1	1	GROUP	1 ****	C7N
