# created with PyMOL 2.3.3
@<TRIPOS>MOLECULE
T39_L1R
48 50 1                 
SMALL
USER_CHARGES
@<TRIPOS>ATOM
1	  C1	29.780	26.970	27.330	C.3	1	T391	0.000	
2	  N1	27.090	26.650	28.490	N.3	1	T391	0.000	
3	  C2	29.100	25.610	27.420	C.3	1	T391	0.000	
4	  C3	28.040	25.500	28.530	C.3	1	T391	0.000	
5	  O3	22.478	25.060	26.988	O.3	1	T391	0.000	
6	  C4	27.490	27.890	28.000	C.3	1	T391	0.000	
7	  C5	28.770	28.090	27.430	C.3	1	T391	0.000	
8	  C6	29.170	29.330	26.920	C.3	1	T391	0.000	
9	  C7	26.640	29.020	28.060	C.3	1	T391	0.000	
10	  C8	27.040	30.260	27.570	C.3	1	T391	0.000	
11	  C9	28.300	30.430	26.990	C.3	1	T391	0.000	
12	 C10	28.690	31.700	26.470	C.3	1	T391	0.000	
13	 C11	26.510	32.570	27.290	C.3	1	T391	0.000	
14	 C12	27.800	32.710	26.640	C.3	1	T391	0.000	
15	 C13	30.000	32.010	25.810	C.3	1	T391	0.000	
16	 C14	30.910	27.170	28.360	C.3	1	T391	0.000	
17	 C15	28.680	25.410	29.920	C.3	1	T391	0.000	
18	 C16	27.360	24.150	28.250	C.3	1	T391	0.000	
19	 C17	25.810	26.460	29.230	C.3	1	T391	0.000	
20	 C18	24.640	25.890	28.380	C.3	1	T391	0.000	
21	 C19	23.292	25.746	29.119	C.3	1	T391	0.000	
22	 O91	26.190	31.330	27.680	O.3	1	T391	0.000	
23	 O92	25.800	33.530	27.490	O.3	1	T391	0.000	
24	 C99	22.265	25.156	28.188	C.3	1	T391	0.000	
25	  H1	31.600	27.950	28.010	 H	1	T391	0.000	
26	  H2	30.530	27.490	29.330	 H	1	T391	0.000	
27	  H3	31.480	26.260	28.500	 H	1	T391	0.000	
28	  H4	30.040	33.030	25.450	 H	1	T391	0.000	
29	  H5	30.820	31.870	26.510	 H	1	T391	0.000	
30	  H6	30.150	31.340	24.970	 H	1	T391	0.000	
31	  H7	30.150	29.430	26.480	 H	1	T391	0.000	
32	  H8	25.640	28.970	28.480	 H	1	T391	0.000	
33	  H9	28.000	33.710	26.280	 H	1	T391	0.000	
34	 H10	28.610	25.450	26.460	 H	1	T391	0.000	
35	 H11	29.850	24.820	27.510	 H	1	T391	0.000	
36	 H12	27.980	24.990	30.640	 H	1	T391	0.000	
37	 H13	29.560	24.770	29.910	 H	1	T391	0.000	
38	 H14	28.960	26.400	30.300	 H	1	T391	0.000	
39	 H15	26.660	23.870	29.050	 H	1	T391	0.000	
40	 H16	28.100	23.350	28.180	 H	1	T391	0.000	
41	 H17	26.820	24.170	27.300	 H	1	T391	0.000	
42	 H18	25.960	25.770	30.070	 H	1	T391	0.000	
43	 H19	25.480	27.390	29.700	 H	1	T391	0.000	
44	 H20	24.481	26.488	27.494	 H	1	T391	0.000	
45	 H21	24.954	24.911	28.016	 H	1	T391	0.000	
46	 H22	22.953	26.710	29.487	 H	1	T391	0.000	
47	 H23	23.384	25.081	29.978	 H	1	T391	0.000	
48	 H24	30.250	27.010	26.350	 H	1	T391	0.000	
@<TRIPOS>BOND
1 1 3 1
2 1 7 1
3 1 16 1
4 1 48 1
5 2 4 1
6 2 19 1
7 3 34 1
8 3 35 1
9 3 4 1
10 4 17 1
11 4 18 1
12 2 6 1
13 6 9 1
14 6 7 1
15 7 8 1
16 8 31 1
17 9 10 1
18 9 32 1
19 10 11 1
20 10 22 1
21 8 11 1
22 11 12 1
23 12 14 1
24 12 15 1
25 13 22 1
26 13 23 1
27 13 14 1
28 14 33 1
29 15 28 1
30 15 29 1
31 15 30 1
32 16 25 1
33 16 26 1
34 16 27 1
35 17 36 1
36 17 37 1
37 17 38 1
38 18 39 1
39 18 40 1
40 18 41 1
41 19 20 1
42 19 42 1
43 19 43 1
44 20 21 1
45 20 44 1
46 20 45 1
47 21 24 1
48 21 46 1
49 21 47 1
50 5 24 1
@<TRIPOS>SUBSTRUCTURE
1	T391	1	GROUP	1 ****	T39
