# created with PyMOL 2.3.3
@<TRIPOS>MOLECULE
T42_L1R
54 56 1                 
SMALL
USER_CHARGES
@<TRIPOS>ATOM
1	  C1	27.210	27.110	31.420	C.3	1	T421	0.000	
2	  N1	25.660	25.040	30.010	N.3	1	T421	0.000	
3	  C2	27.770	25.720	31.150	C.3	1	T421	0.000	
4	  C3	26.720	24.610	30.950	C.3	1	T421	0.000	
5	  O3	23.380	33.010	28.920	O.3	1	T421	0.000	
6	  C4	25.330	26.380	29.860	C.3	1	T421	0.000	
7	  O4	25.743	22.851	25.285	O.3	1	T421	0.000	
8	  C5	26.030	27.400	30.530	C.3	1	T421	0.000	
9	  O5	21.480	29.770	27.110	O.3	1	T421	0.000	
10	  C6	25.670	28.750	30.370	C.3	1	T421	0.000	
11	  C7	24.260	26.760	29.030	C.3	1	T421	0.000	
12	  C8	23.910	28.090	28.880	C.3	1	T421	0.000	
13	  C9	24.600	29.090	29.540	C.3	1	T421	0.000	
14	 C10	24.230	30.460	29.380	C.3	1	T421	0.000	
15	 C11	22.450	29.640	27.830	C.3	1	T421	0.000	
16	 C12	23.200	30.710	28.490	C.3	1	T421	0.000	
17	 C13	22.900	32.120	28.240	C.3	1	T421	0.000	
18	 C14	21.930	33.760	26.830	C.3	1	T421	0.000	
19	 C15	21.080	33.850	25.560	C.3	1	T421	0.000	
20	 C16	26.890	27.380	32.910	C.3	1	T421	0.000	
21	 C17	26.070	24.200	32.280	C.3	1	T421	0.000	
22	 C18	27.510	23.390	30.430	C.3	1	T421	0.000	
23	 C19	24.850	23.960	29.370	C.3	1	T421	0.000	
24	 C20	25.280	23.710	27.900	C.3	1	T421	0.000	
25	 C21	24.360	22.660	27.240	C.3	1	T421	0.000	
26	 O91	22.870	28.390	28.070	O.3	1	T421	0.000	
27	 O92	22.100	32.380	27.190	O.3	1	T421	0.000	
28	 C99	24.760	22.370	25.820	C.3	1	T421	0.000	
29	  H1	21.430	34.280	27.650	 H	1	T421	0.000	
30	  H2	22.910	34.210	26.650	 H	1	T421	0.000	
31	  H3	21.000	34.890	25.230	 H	1	T421	0.000	
32	  H4	21.540	33.260	24.760	 H	1	T421	0.000	
33	  H5	20.070	33.480	25.740	 H	1	T421	0.000	
34	  H6	24.770	31.250	29.890	 H	1	T421	0.000	
35	  H7	26.220	29.530	30.900	 H	1	T421	0.000	
36	  H8	25.970	26.900	33.230	 H	1	T421	0.000	
37	  H9	26.780	28.450	33.080	 H	1	T421	0.000	
38	 H10	27.710	27.030	33.550	 H	1	T421	0.000	
39	 H11	28.360	25.790	30.240	 H	1	T421	0.000	
40	 H12	28.470	25.440	31.940	 H	1	T421	0.000	
41	 H13	25.380	24.950	32.640	 H	1	T421	0.000	
42	 H14	26.830	24.050	33.050	 H	1	T421	0.000	
43	 H15	25.520	23.270	32.170	 H	1	T421	0.000	
44	 H16	27.950	23.610	29.460	 H	1	T421	0.000	
45	 H17	28.320	23.160	31.120	 H	1	T421	0.000	
46	 H18	26.900	22.500	30.360	 H	1	T421	0.000	
47	 H19	24.400	21.720	27.800	 H	1	T421	0.000	
48	 H20	23.320	23.000	27.250	 H	1	T421	0.000	
49	 H21	25.240	24.640	27.330	 H	1	T421	0.000	
50	 H22	26.310	23.350	27.870	 H	1	T421	0.000	
51	 H23	23.780	24.210	29.400	 H	1	T421	0.000	
52	 H24	24.930	23.020	29.920	 H	1	T421	0.000	
53	 H25	28.010	27.810	31.160	 H	1	T421	0.000	
54	 H26	23.680	26.040	28.470	 H	1	T421	0.000	
@<TRIPOS>BOND
1 1 3 1
2 1 8 1
3 1 20 1
4 1 53 1
5 2 4 1
6 2 23 1
7 3 39 1
8 3 40 1
9 3 4 1
10 4 21 1
11 4 22 1
12 2 6 1
13 6 11 1
14 6 8 1
15 8 10 1
16 10 35 1
17 11 12 1
18 11 54 1
19 12 13 1
20 12 26 1
21 10 13 1
22 13 14 1
23 14 16 1
24 14 34 1
25 9 15 1
26 15 26 1
27 15 16 1
28 16 17 1
29 5 17 1
30 17 27 1
31 18 19 1
32 18 29 1
33 18 30 1
34 19 31 1
35 19 32 1
36 19 33 1
37 20 36 1
38 20 37 1
39 20 38 1
40 21 41 1
41 21 42 1
42 21 43 1
43 22 44 1
44 22 45 1
45 22 46 1
46 23 24 1
47 23 51 1
48 23 52 1
49 24 25 1
50 24 49 1
51 24 50 1
52 25 28 1
53 25 47 1
54 25 48 1
55 18 27 1
56 7 28 1
@<TRIPOS>SUBSTRUCTURE
1	T421	1	GROUP	1 ****	T42
