# created with PyMOL 2.3.3
@<TRIPOS>MOLECULE
T46_L1R
38 40 1                 
SMALL
USER_CHARGES
@<TRIPOS>ATOM
1	  C1	22.930	21.340	32.050	C.3	1	T461	0.000	
2	  N1	22.400	24.840	30.940	N.3	1	T461	0.000	
3	  C2	22.740	20.650	30.850	C.3	1	T461	0.000	
4	  N2	23.070	28.910	33.370	N.3	1	T461	0.000	
5	  C3	22.460	21.370	29.690	C.3	1	T461	0.000	
6	  N3	22.290	20.740	28.520	N.3	1	T461	0.000	
7	  C4	22.360	22.750	29.700	C.3	1	T461	0.000	
8	  C5	22.540	23.470	30.900	C.3	1	T461	0.000	
9	  C6	22.840	22.740	32.070	C.3	1	T461	0.000	
10	  C7	23.060	23.400	33.280	C.3	1	T461	0.000	
11	  C8	22.730	25.510	32.100	C.3	1	T461	0.000	
12	  C9	23.030	24.800	33.280	C.3	1	T461	0.000	
13	 C10	23.310	25.470	34.480	C.3	1	T461	0.000	
14	 C11	22.750	26.920	32.160	C.3	1	T461	0.000	
15	 C12	23.050	27.570	33.350	C.3	1	T461	0.000	
16	 C13	23.320	26.870	34.510	C.3	1	T461	0.000	
17	 C14	21.940	25.580	29.750	C.3	1	T461	0.000	
18	 C15	23.130	25.990	28.850	C.3	1	T461	0.000	
19	 C16	22.670	26.850	27.660	C.3	1	T461	0.000	
20	 O91	24.979	27.183	26.941	O.3	1	T461	0.000	
21	 C99	23.785	27.250	26.705	C.3	1	T461	0.000	
22	  H1	23.330	29.410	34.220	 H	1	T461	0.000	
23	  H2	22.950	29.440	32.520	 H	1	T461	0.000	
24	  H3	22.030	21.290	27.700	 H	1	T461	0.000	
25	  H4	22.330	19.730	28.450	 H	1	T461	0.000	
26	  H5	23.170	20.780	32.960	 H	1	T461	0.000	
27	  H6	22.820	19.570	30.820	 H	1	T461	0.000	
28	  H7	23.300	22.850	34.180	 H	1	T461	0.000	
29	  H8	23.540	24.910	35.390	 H	1	T461	0.000	
30	  H9	23.560	27.390	35.430	 H	1	T461	0.000	
31	 H10	22.560	27.540	31.300	 H	1	T461	0.000	
32	 H11	22.150	23.230	28.760	 H	1	T461	0.000	
33	 H12	21.220	24.990	29.180	 H	1	T461	0.000	
34	 H13	21.380	26.470	30.040	 H	1	T461	0.000	
35	 H14	23.850	26.560	29.440	 H	1	T461	0.000	
36	 H15	23.650	25.100	28.490	 H	1	T461	0.000	
37	 H16	22.224	27.764	28.032	 H	1	T461	0.000	
38	 H17	21.893	26.323	27.100	 H	1	T461	0.000	
@<TRIPOS>BOND
1 1 3 1
2 1 9 1
3 1 26 1
4 2 11 1
5 2 17 1
6 3 27 1
7 4 22 1
8 4 23 1
9 3 5 1
10 5 6 1
11 6 24 1
12 6 25 1
13 5 7 1
14 7 32 1
15 2 8 1
16 7 8 1
17 8 9 1
18 9 10 1
19 10 28 1
20 11 12 1
21 11 14 1
22 10 12 1
23 12 13 1
24 13 16 1
25 13 29 1
26 14 31 1
27 4 15 1
28 14 15 1
29 15 16 1
30 16 30 1
31 17 18 1
32 17 33 1
33 17 34 1
34 18 19 1
35 18 35 1
36 18 36 1
37 19 21 1
38 19 37 1
39 19 38 1
40 20 21 1
@<TRIPOS>SUBSTRUCTURE
1	T461	1	GROUP	1 ****	T46
