# created with PyMOL 2.3.3
@<TRIPOS>MOLECULE
T48_L2R
44 47 1                 
SMALL
USER_CHARGES
@<TRIPOS>ATOM
1	  C1	21.780	24.840	25.680	C.3	1	T481	0.000	
2	  S1	20.760	23.490	26.150	S.3	1	T481	0.000	
3	  C2	21.190	26.100	25.480	C.3	1	T481	0.000	
4	  N2	27.940	20.920	25.950	N.3	1	T481	0.000	
5	  S2	25.080	20.880	26.830	S.3	1	T481	0.000	
6	  C3	21.940	27.170	25.000	C.3	1	T481	0.000	
7	  N3	19.890	26.340	25.730	N.3	1	T481	0.000	
8	  O3	21.410	22.240	25.920	O.3	1	T481	0.000	
9	  C4	23.290	27.020	24.730	C.3	1	T481	0.000	
10	  O4	25.880	21.080	28.010	O.3	1	T481	0.000	
11	  C5	23.910	25.780	24.980	C.3	1	T481	0.000	
12	  O5	23.700	21.050	27.110	O.3	1	T481	0.000	
13	  C6	23.170	24.690	25.480	C.3	1	T481	0.000	
14	  O6	25.620	19.600	26.470	O.3	1	T481	0.000	
15	  C7	25.930	24.410	25.020	C.3	1	T481	0.000	
16	  O7	20.690	23.870	27.530	O.3	1	T481	0.000	
17	  C8	25.200	23.350	25.590	C.3	1	T481	0.000	
18	  O8	23.830	23.500	25.790	O.3	1	T481	0.000	
19	  C9	25.880	22.170	25.950	C.3	1	T481	0.000	
20	 C10	27.310	24.270	24.750	C.3	1	T481	0.000	
21	 C11	27.950	23.070	25.050	C.3	1	T481	0.000	
22	 C12	27.240	22.040	25.660	C.3	1	T481	0.000	
23	 C15	25.300	25.640	24.730	C.3	1	T481	0.000	
24	 C16	26.700	27.740	24.990	C.3	1	T481	0.000	
25	 C17	27.450	28.740	24.330	C.3	1	T481	0.000	
26	 C18	27.580	28.760	22.930	C.3	1	T481	0.000	
27	 C19	26.950	27.790	22.150	C.3	1	T481	0.000	
28	 C20	26.200	26.790	22.770	C.3	1	T481	0.000	
29	 C21	26.080	26.740	24.180	C.3	1	T481	0.000	
30	 O91	25.930	26.930	27.090	O.3	1	T481	0.000	
31	 O92	19.410	23.720	25.730	O.3	1	T481	0.000	
32	 C99	26.570	27.750	26.460	C.3	1	T481	0.000	
33	  H1	27.900	25.060	24.290	 H	1	T481	0.000	
34	  H2	23.850	27.870	24.350	 H	1	T481	0.000	
35	  H7	21.460	28.130	24.840	 H	1	T481	0.000	
36	  H8	29.010	22.950	24.830	 H	1	T481	0.000	
37	  H9	27.960	29.520	24.890	 H	1	T481	0.000	
38	 H10	28.170	29.540	22.450	 H	1	T481	0.000	
39	 H11	27.050	27.810	21.060	 H	1	T481	0.000	
40	 H12	25.720	26.020	22.160	 H	1	T481	0.000	
41	 H13	27.400	20.150	26.360	 H	1	T481	0.000	
42	 H14	28.900	20.790	25.680	 H	1	T481	0.000	
43	 H15	19.480	27.270	25.640	 H	1	T481	0.000	
44	 H16	19.340	25.570	26.090	 H	1	T481	0.000	
@<TRIPOS>BOND
1 1 2 1
2 1 3 1
3 1 13 1
4 2 8 1
5 2 16 1
6 2 31 1
7 3 7 1
8 4 41 1
9 4 42 1
10 5 10 1
11 5 12 1
12 5 14 1
13 3 6 1
14 6 35 1
15 7 43 1
16 7 44 1
17 6 9 1
18 9 34 1
19 9 11 1
20 11 23 1
21 11 13 1
22 13 18 1
23 15 17 1
24 15 20 1
25 17 18 1
26 17 19 1
27 5 19 1
28 19 22 1
29 20 33 1
30 20 21 1
31 21 36 1
32 4 22 1
33 21 22 1
34 15 23 1
35 23 29 1
36 24 25 1
37 24 32 1
38 25 26 1
39 25 37 1
40 26 27 1
41 26 38 1
42 27 28 1
43 27 39 1
44 28 40 1
45 24 29 1
46 28 29 1
47 30 32 1
@<TRIPOS>SUBSTRUCTURE
1	T481	1	GROUP	1 ****	T48
