# created with PyMOL 2.3.3
@<TRIPOS>MOLECULE
T49_L1R
50 52 1                 
SMALL
USER_CHARGES
@<TRIPOS>ATOM
1	  C1	21.880	25.210	23.840	C.3	1	T491	0.000	
2	  N1	25.460	24.580	24.550	N.3	1	T491	0.000	
3	  C2	21.960	26.370	23.060	C.3	1	T491	0.000	
4	  N2	27.500	21.440	27.650	N.3	1	T491	0.000	
5	  C3	23.200	26.980	22.790	C.3	1	T491	0.000	
6	  N3	23.270	28.140	22.030	N.3	1	T491	0.000	
7	  C4	24.370	26.380	23.320	C.3	1	T491	0.000	
8	  C5	24.310	25.210	24.100	C.3	1	T491	0.000	
9	  C6	23.050	24.640	24.360	C.3	1	T491	0.000	
10	  C7	22.930	23.520	25.170	C.3	1	T491	0.000	
11	  C8	25.340	23.560	25.470	C.3	1	T491	0.000	
12	  C9	24.090	22.990	25.750	C.3	1	T491	0.000	
13	 C10	23.960	21.910	26.630	C.3	1	T491	0.000	
14	 C11	26.480	23.020	26.120	C.3	1	T491	0.000	
15	 C12	26.380	21.950	27.010	C.3	1	T491	0.000	
16	 C13	25.100	21.390	27.260	C.3	1	T491	0.000	
17	 C14	24.530	28.840	21.760	C.3	1	T491	0.000	
18	 C15	22.070	28.740	21.400	C.3	1	T491	0.000	
19	 C16	28.850	22.000	27.420	C.3	1	T491	0.000	
20	 C17	27.440	20.340	28.620	C.3	1	T491	0.000	
21	 C18	26.800	25.000	24.060	C.3	1	T491	0.000	
22	 C19	27.430	26.100	24.940	C.3	1	T491	0.000	
23	 C20	28.787	26.599	24.376	C.3	1	T491	0.000	
24	 O91	28.962	28.258	26.146	O.3	1	T491	0.000	
25	 C99	29.476	27.633	25.243	C.3	1	T491	0.000	
26	  H1	28.880	23.050	27.750	 H	1	T491	0.000	
27	  H2	29.610	21.450	27.980	 H	1	T491	0.000	
28	  H3	29.100	21.950	26.360	 H	1	T491	0.000	
29	  H4	27.010	20.690	29.560	 H	1	T491	0.000	
30	  H5	28.440	19.930	28.830	 H	1	T491	0.000	
31	  H6	26.830	19.520	28.230	 H	1	T491	0.000	
32	  H7	22.330	29.590	20.770	 H	1	T491	0.000	
33	  H8	21.570	28.000	20.770	 H	1	T491	0.000	
34	  H9	21.370	29.080	22.170	 H	1	T491	0.000	
35	 H10	25.030	29.100	22.700	 H	1	T491	0.000	
36	 H11	24.380	29.770	21.200	 H	1	T491	0.000	
37	 H12	25.200	28.200	21.170	 H	1	T491	0.000	
38	 H13	21.040	26.780	22.670	 H	1	T491	0.000	
39	 H14	20.910	24.760	24.040	 H	1	T491	0.000	
40	 H15	21.950	23.090	25.380	 H	1	T491	0.000	
41	 H16	22.990	21.470	26.840	 H	1	T491	0.000	
42	 H17	24.980	20.560	27.940	 H	1	T491	0.000	
43	 H18	27.460	23.440	25.930	 H	1	T491	0.000	
44	 H19	25.310	26.860	23.110	 H	1	T491	0.000	
45	 H20	28.611	27.040	23.396	 H	1	T491	0.000	
46	 H21	29.444	25.741	24.226	 H	1	T491	0.000	
47	 H22	26.747	26.950	24.994	 H	1	T491	0.000	
48	 H23	27.565	25.748	25.965	 H	1	T491	0.000	
49	 H24	27.460	24.140	24.000	 H	1	T491	0.000	
50	 H25	26.720	25.350	23.030	 H	1	T491	0.000	
@<TRIPOS>BOND
1 1 3 1
2 1 9 1
3 1 39 1
4 2 11 1
5 2 21 1
6 3 38 1
7 4 19 1
8 4 20 1
9 3 5 1
10 5 6 1
11 6 17 1
12 6 18 1
13 5 7 1
14 7 44 1
15 2 8 1
16 7 8 1
17 8 9 1
18 9 10 1
19 10 40 1
20 11 12 1
21 11 14 1
22 10 12 1
23 12 13 1
24 13 16 1
25 13 41 1
26 14 43 1
27 4 15 1
28 14 15 1
29 15 16 1
30 16 42 1
31 17 35 1
32 17 36 1
33 17 37 1
34 18 32 1
35 18 33 1
36 18 34 1
37 19 26 1
38 19 27 1
39 19 28 1
40 20 29 1
41 20 30 1
42 20 31 1
43 21 22 1
44 21 49 1
45 21 50 1
46 22 23 1
47 22 47 1
48 22 48 1
49 23 25 1
50 23 45 1
51 23 46 1
52 24 25 1
@<TRIPOS>SUBSTRUCTURE
1	T491	1	GROUP	1 ****	T49
