# created with PyMOL 2.3.3
@<TRIPOS>MOLECULE
T51_L2R
50 53 1                 
SMALL
USER_CHARGES
@<TRIPOS>ATOM
1	  C1	24.560	23.770	24.700	C.3	1	T511	0.000	
2	  S1	24.740	22.360	23.660	S.3	1	T511	0.000	
3	  C2	23.290	24.370	24.850	C.3	1	T511	0.000	
4	  N2	31.640	23.670	26.470	N.3	1	T511	0.000	
5	  S2	29.530	22.280	24.810	S.3	1	T511	0.000	
6	  C3	23.140	25.510	25.650	C.3	1	T511	0.000	
7	  N3	22.200	23.830	24.220	N.3	1	T511	0.000	
8	  O3	26.020	21.750	23.680	O.3	1	T511	0.000	
9	  C4	24.230	26.060	26.310	C.3	1	T511	0.000	
10	  O4	28.860	22.660	23.610	O.3	1	T511	0.000	
11	  C5	25.490	25.470	26.180	C.3	1	T511	0.000	
12	  O5	30.880	21.830	24.700	O.3	1	T511	0.000	
13	  C6	25.670	24.320	25.380	C.3	1	T511	0.000	
14	  O6	28.650	21.420	25.560	O.3	1	T511	0.000	
15	  C7	27.870	25.420	26.760	C.3	1	T511	0.000	
16	  O7	23.570	21.550	23.830	O.3	1	T511	0.000	
17	  C8	28.040	24.280	25.950	C.3	1	T511	0.000	
18	  O8	26.940	23.760	25.280	O.3	1	T511	0.000	
19	  C9	29.320	23.690	25.840	C.3	1	T511	0.000	
20	 C10	28.960	25.960	27.460	C.3	1	T511	0.000	
21	 C11	30.210	25.370	27.360	C.3	1	T511	0.000	
22	 C12	30.410	24.240	26.550	C.3	1	T511	0.000	
23	 C15	26.590	26.020	26.880	C.3	1	T511	0.000	
24	 C16	26.090	27.180	29.090	C.3	1	T511	0.000	
25	 C17	26.010	28.430	29.760	C.3	1	T511	0.000	
26	 C18	26.220	29.640	29.080	C.3	1	T511	0.000	
27	 C19	26.520	29.650	27.720	C.3	1	T511	0.000	
28	 C20	26.630	28.440	27.040	C.3	1	T511	0.000	
29	 C21	26.420	27.210	27.700	C.3	1	T511	0.000	
30	 C22	32.840	24.040	27.190	C.3	1	T511	0.000	
31	 C23	20.810	24.200	24.360	C.3	1	T511	0.000	
32	 O91	25.950	24.820	29.250	O.3	1	T511	0.000	
33	 O92	24.360	23.040	22.460	O.3	1	T511	0.000	
34	 C99	25.880	25.900	29.810	C.3	1	T511	0.000	
35	  F1	32.610	23.990	28.520	 F	1	T511	0.000	
36	  F2	33.220	25.280	26.830	 F	1	T511	0.000	
37	  F3	33.800	23.160	26.870	 F	1	T511	0.000	
38	  F4	20.440	24.090	25.640	 F	1	T511	0.000	
39	  F5	20.630	25.470	23.930	 F	1	T511	0.000	
40	  F6	20.090	23.370	23.600	 F	1	T511	0.000	
41	  H1	28.860	26.840	28.110	 H	1	T511	0.000	
42	  H2	24.060	26.950	26.920	 H	1	T511	0.000	
43	  H7	22.170	25.990	25.770	 H	1	T511	0.000	
44	  H8	31.020	25.810	27.920	 H	1	T511	0.000	
45	  H9	25.790	28.490	30.820	 H	1	T511	0.000	
46	 H10	26.140	30.580	29.630	 H	1	T511	0.000	
47	 H11	26.690	30.590	27.190	 H	1	T511	0.000	
48	 H12	26.880	28.450	25.970	 H	1	T511	0.000	
49	 H13	31.740	22.840	25.900	 H	1	T511	0.000	
50	 H14	22.370	22.960	23.720	 H	1	T511	0.000	
@<TRIPOS>BOND
1 1 2 1
2 1 3 1
3 1 13 1
4 2 8 1
5 2 16 1
6 2 33 1
7 3 7 1
8 4 30 1
9 4 49 1
10 5 10 1
11 5 12 1
12 5 14 1
13 3 6 1
14 6 43 1
15 7 31 1
16 7 50 1
17 6 9 1
18 9 42 1
19 9 11 1
20 11 23 1
21 11 13 1
22 13 18 1
23 15 17 1
24 15 20 1
25 17 18 1
26 17 19 1
27 5 19 1
28 19 22 1
29 20 41 1
30 20 21 1
31 21 44 1
32 4 22 1
33 21 22 1
34 15 23 1
35 23 29 1
36 24 25 1
37 24 34 1
38 25 26 1
39 25 45 1
40 26 27 1
41 26 46 1
42 27 28 1
43 27 47 1
44 28 48 1
45 24 29 1
46 28 29 1
47 30 35 1
48 30 36 1
49 30 37 1
50 31 38 1
51 31 39 1
52 31 40 1
53 32 34 1
@<TRIPOS>SUBSTRUCTURE
1	T511	1	GROUP	1 ****	T51
