# created with PyMOL 2.3.3
@<TRIPOS>MOLECULE
T52_L1R
52 54 1                 
SMALL
USER_CHARGES
@<TRIPOS>ATOM
1	  C1	26.260	25.310	32.490	C.3	1	T521	0.000	
2	  N1	31.450	20.680	28.980	N.3	1	T521	0.000	
3	  C2	26.470	25.960	33.720	C.3	1	T521	0.000	
4	  N2	27.880	26.380	35.620	N.3	1	T521	0.000	
5	  C3	27.670	25.730	34.430	C.3	1	T521	0.000	
6	  C4	28.630	24.870	33.900	C.3	1	T521	0.000	
7	  C5	28.410	24.240	32.680	C.3	1	T521	0.000	
8	  C6	27.230	24.430	31.950	C.3	1	T521	0.000	
9	  C7	27.030	23.760	30.680	C.3	1	T521	0.000	
10	  C8	29.300	22.830	31.040	C.3	1	T521	0.000	
11	  C9	28.150	22.950	30.240	C.3	1	T521	0.000	
12	 C10	28.130	22.280	29.000	C.3	1	T521	0.000	
13	 C11	30.400	22.080	30.630	C.3	1	T521	0.000	
14	 C12	30.380	21.410	29.400	C.3	1	T521	0.000	
15	 C13	29.230	21.510	28.580	C.3	1	T521	0.000	
16	 C14	25.400	26.900	34.250	C.3	1	T521	0.000	
17	 C15	29.160	20.800	27.230	C.3	1	T521	0.000	
18	 C16	25.790	23.930	29.840	C.3	1	T521	0.000	
19	 C17	25.990	25.060	28.800	C.3	1	T521	0.000	
20	 C19	32.710	20.520	29.700	C.3	1	T521	0.000	
21	 C20	33.630	21.710	29.410	C.3	1	T521	0.000	
22	 C21	29.080	26.250	36.450	C.3	1	T521	0.000	
23	 C22	30.230	27.070	35.840	C.3	1	T521	0.000	
24	 O91	29.420	23.430	32.250	O.3	1	T521	0.000	
25	 O92	23.812	24.503	28.016	O.3	1	T521	0.000	
26	 C99	24.801	25.215	27.914	C.3	1	T521	0.000	
27	  H1	31.360	20.180	28.100	 H	1	T521	0.000	
28	  H2	33.200	19.600	29.360	 H	1	T521	0.000	
29	  H3	32.540	20.420	30.770	 H	1	T521	0.000	
30	  H4	33.160	22.650	29.730	 H	1	T521	0.000	
31	  H5	34.580	21.600	29.950	 H	1	T521	0.000	
32	  H6	33.840	21.780	28.340	 H	1	T521	0.000	
33	  H7	27.130	26.960	35.970	 H	1	T521	0.000	
34	  H8	29.370	25.200	36.550	 H	1	T521	0.000	
35	  H9	28.860	26.640	37.450	 H	1	T521	0.000	
36	 H10	30.480	26.720	34.840	 H	1	T521	0.000	
37	 H11	31.130	26.980	36.460	 H	1	T521	0.000	
38	 H12	29.970	28.120	35.770	 H	1	T521	0.000	
39	 H13	24.550	26.970	33.560	 H	1	T521	0.000	
40	 H14	25.800	27.910	34.380	 H	1	T521	0.000	
41	 H15	25.020	26.550	35.210	 H	1	T521	0.000	
42	 H16	25.330	25.510	31.970	 H	1	T521	0.000	
43	 H17	27.270	22.330	28.340	 H	1	T521	0.000	
44	 H18	29.210	19.710	27.360	 H	1	T521	0.000	
45	 H19	28.220	21.020	26.710	 H	1	T521	0.000	
46	 H20	29.970	21.110	26.580	 H	1	T521	0.000	
47	 H21	29.560	24.680	34.410	 H	1	T521	0.000	
48	 H22	31.260	22.040	31.280	 H	1	T521	0.000	
49	 H23	24.920	24.140	30.460	 H	1	T521	0.000	
50	 H24	25.520	23.010	29.320	 H	1	T521	0.000	
51	 H25	26.881	24.867	28.205	 H	1	T521	0.000	
52	 H26	26.130	26.015	29.315	 H	1	T521	0.000	
@<TRIPOS>BOND
1 1 3 1
2 1 8 1
3 1 42 1
4 2 20 1
5 2 27 1
6 3 16 1
7 4 22 1
8 4 33 1
9 3 5 1
10 4 5 1
11 5 6 1
12 6 47 1
13 6 7 1
14 7 24 1
15 7 8 1
16 8 9 1
17 9 18 1
18 10 11 1
19 10 13 1
20 9 11 1
21 11 12 1
22 12 15 1
23 12 43 1
24 13 48 1
25 2 14 1
26 13 14 1
27 14 15 1
28 15 17 1
29 16 39 1
30 16 40 1
31 16 41 1
32 17 44 1
33 17 45 1
34 17 46 1
35 18 19 1
36 18 49 1
37 18 50 1
38 19 26 1
39 19 51 1
40 19 52 1
41 20 21 1
42 20 28 1
43 20 29 1
44 21 30 1
45 21 31 1
46 21 32 1
47 22 23 1
48 22 34 1
49 22 35 1
50 23 36 1
51 23 37 1
52 23 38 1
53 10 24 1
54 25 26 1
@<TRIPOS>SUBSTRUCTURE
1	T521	1	GROUP	1 ****	T52
