# created with PyMOL 2.3.3
@<TRIPOS>MOLECULE
T61_L1R
58 61 1                 
SMALL
USER_CHARGES
@<TRIPOS>ATOM
1	  C1	25.150	25.160	22.350	C.3	1	T611	0.000	
2	  N1	28.130	22.120	27.360	N.3	1	T611	0.000	
3	  C2	24.600	25.500	21.110	C.3	1	T611	0.000	
4	  N2	23.520	28.990	21.740	N.3	1	T611	0.000	
5	  C3	24.060	26.780	20.910	C.3	1	T611	0.000	
6	  C4	24.060	27.730	21.940	C.3	1	T611	0.000	
7	  C5	24.610	27.360	23.180	C.3	1	T611	0.000	
8	  C6	25.170	26.080	23.410	C.3	1	T611	0.000	
9	  C7	25.770	25.720	24.790	C.3	1	T611	0.000	
10	  C8	26.360	24.290	24.880	C.3	1	T611	0.000	
11	  C9	26.320	23.400	23.790	C.3	1	T611	0.000	
12	 C10	25.710	23.810	22.520	C.3	1	T611	0.000	
13	 C11	27.470	21.680	25.070	C.3	1	T611	0.000	
14	 C12	26.870	22.120	23.880	C.3	1	T611	0.000	
15	 C13	26.970	23.830	26.070	C.3	1	T611	0.000	
16	 C14	27.520	22.540	26.190	C.3	1	T611	0.000	
17	 C15	28.670	20.750	27.500	C.3	1	T611	0.000	
18	 C16	29.200	20.210	26.160	C.3	1	T611	0.000	
19	 C17	28.070	20.290	25.120	C.3	1	T611	0.000	
20	 C18	23.510	30.020	22.800	C.3	1	T611	0.000	
21	 C19	22.950	29.410	20.450	C.3	1	T611	0.000	
22	 C20	26.880	26.750	25.140	C.3	1	T611	0.000	
23	 C21	24.650	25.840	25.860	C.3	1	T611	0.000	
24	 C22	28.300	22.970	28.540	C.3	1	T611	0.000	
25	 C23	29.490	23.930	28.330	C.3	1	T611	0.000	
26	 C24	29.620	24.950	29.480	C.3	1	T611	0.000	
27	 O91	31.350	26.070	28.240	O.3	1	T611	0.000	
28	 C99	30.750	25.930	29.290	C.3	1	T611	0.000	
29	  H1	24.600	24.780	20.290	 H	1	T611	0.000	
30	  H2	23.650	27.010	19.940	 H	1	T611	0.000	
31	  H3	24.620	28.080	23.990	 H	1	T611	0.000	
32	  H4	25.690	23.120	21.680	 H	1	T611	0.000	
33	  H5	26.830	21.450	23.020	 H	1	T611	0.000	
34	  H6	27.000	24.500	26.920	 H	1	T611	0.000	
35	  H7	27.880	20.090	27.870	 H	1	T611	0.000	
36	  H8	29.490	20.740	28.230	 H	1	T611	0.000	
37	  H9	29.540	19.180	26.280	 H	1	T611	0.000	
38	 H10	30.050	20.810	25.840	 H	1	T611	0.000	
39	 H11	27.290	19.570	25.370	 H	1	T611	0.000	
40	 H12	28.470	20.010	24.140	 H	1	T611	0.000	
41	 H13	24.540	30.250	23.100	 H	1	T611	0.000	
42	 H14	22.960	29.660	23.670	 H	1	T611	0.000	
43	 H15	23.050	30.950	22.450	 H	1	T611	0.000	
44	 H16	23.700	29.290	19.660	 H	1	T611	0.000	
45	 H17	22.080	28.780	20.200	 H	1	T611	0.000	
46	 H18	22.630	30.450	20.460	 H	1	T611	0.000	
47	 H19	26.490	27.770	25.170	 H	1	T611	0.000	
48	 H20	27.660	26.720	24.380	 H	1	T611	0.000	
49	 H21	27.340	26.550	26.110	 H	1	T611	0.000	
50	 H22	24.210	26.840	25.870	 H	1	T611	0.000	
51	 H23	23.850	25.130	25.640	 H	1	T611	0.000	
52	 H24	25.020	25.640	26.860	 H	1	T611	0.000	
53	 H25	27.390	23.540	28.740	 H	1	T611	0.000	
54	 H26	28.490	22.360	29.430	 H	1	T611	0.000	
55	 H27	30.420	23.350	28.250	 H	1	T611	0.000	
56	 H28	29.360	24.470	27.390	 H	1	T611	0.000	
57	 H29	29.770	24.410	30.410	 H	1	T611	0.000	
58	 H30	28.690	25.520	29.580	 H	1	T611	0.000	
@<TRIPOS>BOND
1 1 3 1
2 1 8 1
3 1 12 1
4 2 17 1
5 2 24 1
6 3 29 1
7 4 20 1
8 4 21 1
9 3 5 1
10 5 30 1
11 4 6 1
12 5 6 1
13 6 7 1
14 7 31 1
15 7 8 1
16 8 9 1
17 9 10 1
18 9 22 1
19 9 23 1
20 10 11 1
21 10 15 1
22 11 12 1
23 11 14 1
24 12 32 1
25 13 16 1
26 13 19 1
27 13 14 1
28 14 33 1
29 15 34 1
30 2 16 1
31 15 16 1
32 17 18 1
33 17 35 1
34 17 36 1
35 18 19 1
36 18 37 1
37 18 38 1
38 19 39 1
39 19 40 1
40 20 41 1
41 20 42 1
42 20 43 1
43 21 44 1
44 21 45 1
45 21 46 1
46 22 47 1
47 22 48 1
48 22 49 1
49 23 50 1
50 23 51 1
51 23 52 1
52 24 25 1
53 24 53 1
54 24 54 1
55 25 26 1
56 25 55 1
57 25 56 1
58 26 28 1
59 26 57 1
60 26 58 1
61 27 28 1
@<TRIPOS>SUBSTRUCTURE
1	T611	1	GROUP	1 ****	T61
