@<TRIPOS>MOLECULE
DAO
62 64 2
SMALL
USER_CHARGES
@<TRIPOS>ATOM
1	P	-0.356	-9.218	-1.848	P	1	DA	1.165900
2	O1P	-0.311	-10.489	-2.605	O.2	1	DA	-0.776100
3	O2P	-1.334	-9.156	-0.740	O.3	1	DA	-0.776100
4	C5'	2.021	-8.156	-2.146	C.3	1	DA	-0.006900
5	O5'	1.105	-8.869	-1.295	O.3	1	DA	-0.495400
6	C4'	2.726	-7.072	-1.355	C.3	1	DA	0.162900
7	O4'	1.986	-5.817	-1.352	O.3	1	DA	-0.369100
8	C3'	2.952	-7.370	0.127	C.3	1	DA	0.071300
9	O3'	4.210	-6.832	0.518	O.3	1	DA	-0.523200
10	C2'	1.848	-6.598	0.850	C.3	1	DA	-0.085400
11	C1'	1.913	-5.344	-0.016	C.3	1	DA	0.043100
12	N1	0.158	-0.514	-0.016	N.2	1	DA	-0.762400
13	C2	1.380	-1.027	-0.154	C.2	1	DA	0.571600
14	N3	1.758	-2.286	-0.143	N.2	1	DA	-0.741700
15	C4	0.700	-3.103	0.037	C.2	1	DA	0.380000
16	C5	-0.604	-2.728	0.192	C.2	1	DA	0.072500
17	C6	-0.881	-1.351	0.162	C.2	1	DA	0.689700
18	N6	-2.113	-0.841	0.301	N.pl3	1	DA	-0.912300
19	N7	-1.415	-3.843	0.354	N.2	1	DA	-0.617500
20	C8	-0.589	-4.841	0.292	C.2	1	DA	0.160700
21	N9	0.711	-4.472	0.101	N.pl3	1	DA	-0.026800
22	H2	2.179	-0.300	-0.296	H	1	DA	0.059800
23	H8	-0.904	-5.880	0.384	H	1	DA	0.187700
24	H1'	2.762	-4.737	0.298	H	1	DA	0.183800
25	H3'	2.938	-8.438	0.347	H	1	DA	0.098500
26	H4'	3.682	-7.016	-1.876	H	1	DA	0.117600
27	H61	-2.252	0.159	0.271	H	1	DA	0.416700
28	H62	-2.902	-1.457	0.435	H	1	DA	0.416700
29	H2'1	1.969	-6.459	1.924	H	1	DA	0.071800
30	H2'2	0.881	-7.097	0.793	H	1	DA	0.071800
31	H5'1	1.466	-7.698	-2.965	H	1	DA	0.075400
32	H5'2	2.760	-8.851	-2.545	H	1	DA	0.075400
33	P1	5.267	-7.619	-0.426	P	2	POS	1.165900
34	O3P	5.089	-9.059	-0.008	O2	2	POS	-0.776100
35	O4P	4.851	-7.218	-1.819	O2	2	POS	-0.776100
36	O01	6.690	-7.350	-0.338	OS	2	POS	-0.538081
37	C10	7.386	-8.137	-1.308	CT	2	POS	0.333113
38	C11	8.899	-7.861	-1.203	CT	2	POS	-0.048957
39	C12	9.634	-8.677	-2.300	CT	2	POS	0.035134
40	C13	11.152	-8.402	-2.319	CT	2	POS	0.007925
41	C14	11.824	-9.272	-3.407	CT	2	POS	0.019489
42	C15	13.334	-8.980	-3.527	CT	2	POS	0.113937
43	C16	15.223	-9.866	-4.705	C	2	POS	0.597200
44	C17	15.827	-10.736	-5.785	CT	2	POS	-0.366200
45	O98	15.940	-9.195	-3.951	O	2	POS	-0.567900
46	N99	13.941	-9.822	-4.567	N	2	POS	-0.494649
47	H11	13.352	-10.369	-5.178	H	2	POS	0.251508
48	H12	13.818	-9.167	-2.566	H1	2	POS	0.034245
49	H13	13.481	-7.921	-3.784	H1	2	POS	0.034245
50	H14	11.680	-10.328	-3.162	HC	2	POS	0.004309
51	H15	11.348	-9.085	-4.373	HC	2	POS	0.004309
52	H16	11.593	-8.625	-1.353	HC	2	POS	-0.004179
53	H17	11.334	-7.345	-2.536	HC	2	POS	-0.004179
54	H18	9.458	-9.736	-2.137	HC	2	POS	-0.028664
55	H19	9.222	-8.423	-3.277	HC	2	POS	-0.028664
56	H23	9.018	-6.801	-1.425	HC	2	POS	0.022097
57	H24	9.295	-8.130	-0.225	HC	2	POS	0.022097
58	H25	7.038	-7.875	-2.307	H1	2	POS	-0.020418
59	H26	7.196	-9.194	-1.123	H1	2	POS	-0.020418
60	H95	16.402	-10.130	-6.470	HC	2	POS	0.112300
61	H96	15.045	-11.240	-6.334	HC	2	POS	0.112300
62	H97	16.477	-11.478	-5.343	HC	2	POS	0.112300
@<TRIPOS>BOND
1 1 2 2
2 1 3 1
3 1 5 1
4 4 5 1
5 4 6 1
6 4 31 1
7 4 32 1
8 6 7 1
9 6 8 1
10 6 26 1
11 7 11 1
12 8 9 1
13 8 10 1
14 8 25 1
15 10 11 1
16 10 29 1
17 10 30 1
18 11 21 1
19 11 24 1
20 12 13 1
21 12 17 2
22 13 14 2
23 13 22 1
24 14 15 1
25 15 16 2
26 15 21 1
27 16 17 1
28 16 19 1
29 17 18 1
30 18 27 1
31 18 28 1
32 19 20 2
33 20 21 1
34 20 23 1
35 33 34 1
36 33 35 1
37 33 36 1
38 36 37 1
39 37 38 1
40 37 58 1
41 37 59 1
42 38 39 1
43 38 56 1
44 38 57 1
45 39 40 1
46 39 54 1
47 39 55 1
48 40 41 1
49 40 52 1
50 40 53 1
51 41 42 1
52 41 50 1
53 41 51 1
54 42 46 1
55 42 48 1
56 42 49 1
57 43 44 1
58 43 45 2
59 43 46 1
60 44 60 1
61 44 61 1
62 44 62 1
63 46 47 1
64 9 33 1
@<TRIPOS>SUBSTRUCTURE
1 DA 1 GROUP 1 **** DA
2 POS 33 GROUP 1 **** POS
