@<TRIPOS>MOLECULE
DAP
59 61 2
SMALL
USER_CHARGES
@<TRIPOS>ATOM
1	P	-0.356	-9.218	-1.848	P	1	DA	1.165900
2	O1P	-0.311	-10.489	-2.605	O.2	1	DA	-0.776100
3	O2P	-1.334	-9.156	-0.740	O.3	1	DA	-0.776100
4	C5'	2.021	-8.156	-2.146	C.3	1	DA	-0.006900
5	O5'	1.105	-8.869	-1.295	O.3	1	DA	-0.495400
6	C4'	2.726	-7.072	-1.355	C.3	1	DA	0.162900
7	O4'	1.986	-5.817	-1.352	O.3	1	DA	-0.369100
8	C3'	2.952	-7.370	0.127	C.3	1	DA	0.071300
9	O3'	4.210	-6.832	0.518	O.3	1	DA	-0.523200
10	C2'	1.848	-6.598	0.850	C.3	1	DA	-0.085400
11	C1'	1.913	-5.344	-0.016	C.3	1	DA	0.043100
12	N1	0.158	-0.514	-0.016	N.2	1	DA	-0.762400
13	C2	1.380	-1.027	-0.154	C.2	1	DA	0.571600
14	N3	1.758	-2.286	-0.143	N.2	1	DA	-0.741700
15	C4	0.700	-3.103	0.037	C.2	1	DA	0.380000
16	C5	-0.604	-2.728	0.192	C.2	1	DA	0.072500
17	C6	-0.881	-1.351	0.162	C.2	1	DA	0.689700
18	N6	-2.113	-0.841	0.301	N.pl3	1	DA	-0.912300
19	N7	-1.415	-3.843	0.354	N.2	1	DA	-0.617500
20	C8	-0.589	-4.841	0.292	C.2	1	DA	0.160700
21	N9	0.711	-4.472	0.101	N.pl3	1	DA	-0.026800
22	H2	2.179	-0.300	-0.296	H	1	DA	0.059800
23	H8	-0.904	-5.880	0.384	H	1	DA	0.187700
24	H1'	2.762	-4.737	0.298	H	1	DA	0.183800
25	H3'	2.938	-8.438	0.347	H	1	DA	0.098500
26	H4'	3.682	-7.016	-1.876	H	1	DA	0.117600
27	H61	-2.252	0.159	0.271	H	1	DA	0.416700
28	H62	-2.902	-1.457	0.435	H	1	DA	0.416700
29	H2'1	1.969	-6.459	1.924	H	1	DA	0.071800
30	H2'2	0.881	-7.097	0.793	H	1	DA	0.071800
31	H5'1	1.466	-7.698	-2.965	H	1	DA	0.075400
32	H5'2	2.760	-8.851	-2.545	H	1	DA	0.075400
33	O01	-0.988	-8.274	-2.870	OS	2	POS	-0.540116
34	C10	-2.307	-8.710	-3.209	CT	2	POS	0.337652
35	C11	-2.914	-7.750	-4.250	CT	2	POS	-0.059584
36	C12	-4.365	-8.202	-4.563	CT	2	POS	0.041626
37	C13	-5.080	-7.250	-5.543	CT	2	POS	0.006917
38	C14	-6.503	-7.779	-5.838	CT	2	POS	0.017795
39	C15	-7.296	-6.822	-6.752	CT	2	POS	0.115447
40	C16	-9.401	-6.801	-7.896	C	2	POS	0.597200
41	C17	-10.784	-7.361	-8.145	CT	2	POS	-0.366200
42	O98	-8.988	-5.820	-8.527	O	2	POS	-0.567900
43	N99	-8.641	-7.354	-7.012	N	2	POS	-0.494803
44	H11	-8.972	-8.157	-6.497	H	2	POS	0.251530
45	H12	-6.759	-6.689	-7.694	H1	2	POS	0.033869
46	H13	-7.381	-5.840	-6.265	H1	2	POS	0.033869
47	H14	-6.429	-8.758	-6.320	HC	2	POS	0.004519
48	H15	-7.049	-7.908	-4.900	HC	2	POS	0.004519
49	H16	-4.524	-7.169	-6.471	HC	2	POS	-0.003782
50	H17	-5.149	-6.249	-5.104	HC	2	POS	-0.003782
51	H18	-4.346	-9.206	-4.979	HC	2	POS	-0.029758
52	H19	-4.938	-8.244	-3.637	HC	2	POS	-0.029758
53	H23	-2.955	-6.777	-3.761	HC	2	POS	0.023921
54	H24	-2.334	-7.729	-5.172	HC	2	POS	0.023921
55	H25	-2.929	-8.715	-2.314	H1	2	POS	-0.020951
56	H26	-2.261	-9.716	-3.625	H1	2	POS	-0.020951
57	H95	-11.531	-6.609	-7.941	HC	2	POS	0.112300
58	H96	-10.959	-8.212	-7.502	HC	2	POS	0.112300
59	H97	-10.876	-7.677	-9.174	HC	2	POS	0.112300
@<TRIPOS>BOND
1 1 2 2
2 1 3 1
3 1 5 1
4 4 5 1
5 4 6 1
6 4 31 1
7 4 32 1
8 6 7 1
9 6 8 1
10 6 26 1
11 7 11 1
12 8 9 1
13 8 10 1
14 8 25 1
15 10 11 1
16 10 29 1
17 10 30 1
18 11 21 1
19 11 24 1
20 12 13 1
21 12 17 2
22 13 14 2
23 13 22 1
24 14 15 1
25 15 16 2
26 15 21 1
27 16 17 1
28 16 19 1
29 17 18 1
30 18 27 1
31 18 28 1
32 19 20 2
33 20 21 1
34 20 23 1
35 33 34 1
36 34 35 1
37 34 55 1
38 34 56 1
39 35 36 1
40 35 53 1
41 35 54 1
42 36 37 1
43 36 51 1
44 36 52 1
45 37 38 1
46 37 49 1
47 37 50 1
48 38 39 1
49 38 47 1
50 38 48 1
51 39 43 1
52 39 45 1
53 39 46 1
54 40 41 1
55 40 42 2
56 40 43 1
57 41 57 1
58 41 58 1
59 41 59 1
60 43 44 1
61 1 33 1
@<TRIPOS>SUBSTRUCTURE
1 DA 1 GROUP 1 **** DA
2 POS 33 GROUP 1 **** POS
