@<TRIPOS>MOLECULE
DCH
41 42 2
SMALL
USER_CHARGES
@<TRIPOS>ATOM
1	N1	0.711	-4.472	0.101	N.pl3	1	DC	-0.033900
2	C2	0.897	-3.095	0.010	C.2	1	DC	0.795900
3	O2	2.040	-2.657	-0.163	O.2	1	DC	-0.654800
4	N3	-0.186	-2.282	0.115	N.2	1	DC	-0.774800
5	C4	-1.409	-2.796	0.302	C.2	1	DC	0.843900
6	N4	-2.433	-1.963	0.398	N.pl3	1	DC	-0.977300
7	C5	-1.621	-4.210	0.399	C.2	1	DC	-0.522200
8	C6	-0.526	-5.004	0.292	C.2	1	DC	-0.018300
9	H5	-2.616	-4.628	0.552	H	1	DC	0.186300
10	H6	-0.640	-6.086	0.360	H	1	DC	0.229300
11	H41	-3.366	-2.324	0.539	H	1	DC	0.431400
12	H42	-2.282	-0.967	0.330	H	1	DC	0.431400
13	P	-0.226	-9.364	-1.879	P	2	HYD	1.165900
14	O1P	-1.153	-9.254	-0.694	O2	2	HYD	-0.572620
15	O2P	-0.218	-10.650	-2.670	O2	2	HYD	-0.572620
16	O01	1.117	-9.206	-1.354	OS	2	HYD	-0.523200
17	C10	1.927	-8.515	-2.306	CT	2	HYD	-0.764147
18	C11	2.533	-7.261	-1.651	CT	2	HYD	0.805611
19	C12	3.364	-7.661	-0.422	CT	2	HYD	-0.591061
20	C13	1.994	-5.039	-0.563	CT	2	HYD	-0.257900
21	C14	2.825	-5.439	0.667	CT	2	HYD	2.194389
22	C16	5.920	-6.329	1.427	C	2	HYD	-1.148036
23	C17	6.634	-6.679	2.747	CT	2	HYD	-0.055320
24	O95	1.574	-6.255	-1.235	OS	2	HYD	-0.204766
25	O96	3.389	-4.273	1.276	OH	2	HYD	-0.567900
26	O97	4.425	-8.538	-0.812	OH	2	HYD	0.082908
27	N98	3.843	-6.436	0.262	NT	2	HYD	-0.498550
28	O98	6.640	-5.665	0.385	O	2	HYD	0.597200
29	N99	4.546	-6.851	1.461	N	2	HYD	-0.366200
30	H87	1.315	-8.221	-3.159	H1	2	HYD	0.457725
31	H88	2.728	-9.172	-2.646	H1	2	HYD	0.457725
32	H89	3.199	-6.786	-2.410	H1	2	HYD	-0.321964
33	H90	2.638	-4.473	-1.279	H2	2	HYD	0.125399
34	H91	2.720	-8.226	0.296	H2	2	HYD	0.140537
35	H92	2.158	-5.913	1.427	H2	2	HYD	-0.490713
36	H93	5.198	-8.365	-0.272	HO	2	HYD	-0.015106
37	H94	3.752	-3.701	0.596	HO	2	HYD	-0.229547
38	H95	7.057	-7.681	2.675	HC	2	HYD	0.112300
39	H96	5.919	-6.647	3.567	HC	2	HYD	0.112300
40	H97	7.432	-5.961	2.929	HC	2	HYD	0.112300
41	H99	3.962	-7.385	2.309	H	2	HYD	0.671735
@<TRIPOS>BOND
1 1 2 1
2 1 8 1
3 2 3 2
4 2 4 1
5 4 5 2
6 5 6 1
7 5 7 1
8 6 11 1
9 6 12 1
10 7 8 2
11 7 9 1
12 8 10 1
13 13 14 1
14 13 15 1
15 13 16 1
16 16 17 1
17 17 18 1
18 17 30 1
19 17 31 1
20 18 19 1
21 18 24 1
22 18 32 1
23 19 26 1
24 19 27 1
25 19 34 1
26 20 21 1
27 20 24 1
28 20 33 1
29 21 25 1
30 21 27 1
31 21 35 1
32 22 23 1
33 22 28 2
34 22 29 1
35 23 38 1
36 23 39 1
37 23 40 1
38 25 37 1
39 26 36 1
40 27 29 1
41 29 41 1
42 1 20 1
@<TRIPOS>SUBSTRUCTURE
1 DC 1 GROUP 1 **** DC
2 HYD 13 GROUP 1 **** HYD
