@<TRIPOS>MOLECULE
DCO
60 61 2
SMALL
USER_CHARGES
@<TRIPOS>ATOM
1	P	-0.356	-9.218	-1.848	P	1	DC	1.165900
2	O1P	-0.311	-10.489	-2.605	O.2	1	DC	-0.776100
3	O2P	-1.334	-9.156	-0.740	O.3	1	DC	-0.776100
4	C5'	2.021	-8.156	-2.146	C.3	1	DC	-0.006900
5	O5'	1.105	-8.869	-1.295	O.3	1	DC	-0.495400
6	C4'	2.726	-7.072	-1.355	C.3	1	DC	0.162900
7	O4'	1.986	-5.817	-1.352	O.3	1	DC	-0.369100
8	C3'	2.952	-7.370	0.127	C.3	1	DC	0.071300
9	O3'	4.210	-6.832	0.518	O.3	1	DC	-0.523200
10	C2'	1.848	-6.598	0.850	C.3	1	DC	-0.085400
11	C1'	1.913	-5.344	-0.016	C.3	1	DC	-0.011600
12	N1	0.711	-4.472	0.101	N.pl3	1	DC	-0.033900
13	C2	0.897	-3.095	0.010	C.2	1	DC	0.795900
14	O2	2.040	-2.657	-0.163	O.2	1	DC	-0.654800
15	N3	-0.186	-2.282	0.115	N.2	1	DC	-0.774800
16	C4	-1.409	-2.796	0.302	C.2	1	DC	0.843900
17	N4	-2.433	-1.963	0.398	N.pl3	1	DC	-0.977300
18	C5	-1.621	-4.210	0.399	C.2	1	DC	-0.522200
19	C6	-0.526	-5.004	0.292	C.2	1	DC	-0.018300
20	H5	-2.616	-4.628	0.552	H	1	DC	0.186300
21	H6	-0.640	-6.086	0.360	H	1	DC	0.229300
22	H1'	2.762	-4.737	0.298	H	1	DC	0.196300
23	H3'	2.938	-8.438	0.347	H	1	DC	0.098500
24	H4'	3.682	-7.016	-1.876	H	1	DC	0.117600
25	H41	-3.366	-2.324	0.539	H	1	DC	0.431400
26	H42	-2.282	-0.967	0.330	H	1	DC	0.431400
27	H2'1	1.969	-6.459	1.924	H	1	DC	0.071800
28	H2'2	0.881	-7.097	0.793	H	1	DC	0.071800
29	H5'1	1.466	-7.698	-2.965	H	1	DC	0.075400
30	H5'2	2.760	-8.851	-2.545	H	1	DC	0.075400
31	P1	5.267	-7.619	-0.426	P	2	POS	1.165900
32	O3P	5.089	-9.059	-0.008	O2	2	POS	-0.776100
33	O4P	4.851	-7.218	-1.819	O2	2	POS	-0.776100
34	O01	6.690	-7.350	-0.338	OS	2	POS	-0.538081
35	C10	7.386	-8.137	-1.308	CT	2	POS	0.333113
36	C11	8.899	-7.861	-1.203	CT	2	POS	-0.048957
37	C12	9.634	-8.677	-2.300	CT	2	POS	0.035134
38	C13	11.152	-8.402	-2.319	CT	2	POS	0.007925
39	C14	11.824	-9.272	-3.407	CT	2	POS	0.019489
40	C15	13.334	-8.980	-3.527	CT	2	POS	0.113937
41	C16	15.223	-9.866	-4.705	C	2	POS	0.597200
42	C17	15.827	-10.736	-5.785	CT	2	POS	-0.366200
43	O98	15.940	-9.195	-3.951	O	2	POS	-0.567900
44	N99	13.941	-9.822	-4.567	N	2	POS	-0.494649
45	H11	13.352	-10.369	-5.178	H	2	POS	0.251508
46	H12	13.818	-9.167	-2.566	H1	2	POS	0.034245
47	H13	13.481	-7.921	-3.784	H1	2	POS	0.034245
48	H14	11.680	-10.328	-3.162	HC	2	POS	0.004309
49	H15	11.348	-9.085	-4.373	HC	2	POS	0.004309
50	H16	11.593	-8.625	-1.353	HC	2	POS	-0.004179
51	H17	11.334	-7.345	-2.536	HC	2	POS	-0.004179
52	H18	9.458	-9.736	-2.137	HC	2	POS	-0.028664
53	H19	9.222	-8.423	-3.277	HC	2	POS	-0.028664
54	H23	9.018	-6.801	-1.425	HC	2	POS	0.022097
55	H24	9.295	-8.130	-0.225	HC	2	POS	0.022097
56	H25	7.038	-7.875	-2.307	H1	2	POS	-0.020418
57	H26	7.196	-9.194	-1.123	H1	2	POS	-0.020418
58	H95	16.402	-10.130	-6.470	HC	2	POS	0.112300
59	H96	15.045	-11.240	-6.334	HC	2	POS	0.112300
60	H97	16.477	-11.478	-5.343	HC	2	POS	0.112300
@<TRIPOS>BOND
1 1 2 2
2 1 3 1
3 1 5 1
4 4 5 1
5 4 6 1
6 4 29 1
7 4 30 1
8 6 7 1
9 6 8 1
10 6 24 1
11 7 11 1
12 8 9 1
13 8 10 1
14 8 23 1
15 10 11 1
16 10 27 1
17 10 28 1
18 11 12 1
19 11 22 1
20 12 13 1
21 12 19 1
22 13 14 2
23 13 15 1
24 15 16 2
25 16 17 1
26 16 18 1
27 17 25 1
28 17 26 1
29 18 19 2
30 18 20 1
31 19 21 1
32 31 32 1
33 31 33 1
34 31 34 1
35 34 35 1
36 35 36 1
37 35 56 1
38 35 57 1
39 36 37 1
40 36 54 1
41 36 55 1
42 37 38 1
43 37 52 1
44 37 53 1
45 38 39 1
46 38 50 1
47 38 51 1
48 39 40 1
49 39 48 1
50 39 49 1
51 40 44 1
52 40 46 1
53 40 47 1
54 41 42 1
55 41 43 2
56 41 44 1
57 42 58 1
58 42 59 1
59 42 60 1
60 44 45 1
61 9 31 1
@<TRIPOS>SUBSTRUCTURE
1 DC 1 GROUP 1 **** DC
2 POS 31 GROUP 1 **** POS
