@<TRIPOS>MOLECULE
DGH
44 46 2
SMALL
USER_CHARGES
@<TRIPOS>ATOM
1	N1	0.233	0.533	0.025	N.pl3	1	DG	-0.505300
2	C2	1.516	1.023	0.172	C.2	1	DG	0.743200
3	N2	2.476	0.111	0.344	N.pl3	1	DG	-0.923000
4	N3	1.811	2.321	0.149	N.2	1	DG	-0.663600
5	C4	0.709	3.095	-0.035	C.2	1	DG	0.181400
6	C5	-0.599	2.700	-0.190	C.2	1	DG	0.199100
7	C6	-0.914	1.317	-0.165	C.2	1	DG	0.491800
8	O6	-2.010	0.775	-0.284	O.2	1	DG	-0.569900
9	N7	-1.430	3.807	-0.354	N.2	1	DG	-0.572500
10	C8	-0.606	4.826	-0.294	C.2	1	DG	0.073600
11	N9	0.711	4.472	-0.101	N.pl3	1	DG	0.057700
12	H1	0.111	-0.469	0.057	H	1	DG	0.352000
13	H8	-0.934	5.861	-0.389	H	1	DG	0.199700
14	H21	3.436	0.404	0.458	H	1	DG	0.423500
15	H22	2.242	-0.871	0.360	H	1	DG	0.423500
16	P	-0.226	9.364	1.879	P	2	HYD	1.165900
17	O1P	-1.153	9.254	0.694	O2	2	HYD	-0.572620
18	O2P	-0.218	10.650	2.670	O2	2	HYD	-0.572620
19	O01	1.117	9.206	1.354	OS	2	HYD	-0.523200
20	C10	1.927	8.515	2.306	CT	2	HYD	-0.764147
21	C11	2.533	7.261	1.651	CT	2	HYD	0.805611
22	C12	3.364	7.661	0.422	CT	2	HYD	-0.591061
23	C13	1.994	5.039	0.563	CT	2	HYD	-0.257900
24	C14	2.825	5.439	-0.667	CT	2	HYD	2.194389
25	C16	5.920	6.329	-1.427	C	2	HYD	-1.148036
26	C17	6.634	6.679	-2.747	CT	2	HYD	-0.055320
27	O95	1.574	6.255	1.235	OS	2	HYD	-0.204766
28	O96	3.389	4.273	-1.276	OH	2	HYD	-0.567900
29	O97	4.425	8.538	0.812	OH	2	HYD	0.082908
30	N98	3.843	6.436	-0.262	NT	2	HYD	-0.498550
31	O98	6.640	5.665	-0.385	O	2	HYD	0.597200
32	N99	4.546	6.851	-1.461	N	2	HYD	-0.366200
33	H87	1.315	8.221	3.159	H1	2	HYD	0.457725
34	H88	2.728	9.172	2.646	H1	2	HYD	0.457725
35	H89	3.199	6.786	2.410	H1	2	HYD	-0.321964
36	H90	2.638	4.473	1.279	H2	2	HYD	0.125399
37	H91	2.720	8.226	-0.296	H2	2	HYD	0.140537
38	H92	2.158	5.913	-1.427	H2	2	HYD	-0.490713
39	H93	5.198	8.365	0.272	HO	2	HYD	-0.015106
40	H94	3.752	3.701	-0.596	HO	2	HYD	-0.229547
41	H95	7.057	7.681	-2.675	HC	2	HYD	0.112300
42	H96	5.919	6.647	-3.567	HC	2	HYD	0.112300
43	H97	7.432	5.961	-2.929	HC	2	HYD	0.112300
44	H99	3.962	7.385	-2.309	H	2	HYD	0.671735
@<TRIPOS>BOND
1 1 2 1
2 1 7 1
3 1 12 1
4 2 3 1
5 2 4 2
6 3 14 1
7 3 15 1
8 4 5 1
9 5 6 2
10 5 11 1
11 6 7 1
12 6 9 1
13 7 8 2
14 9 10 2
15 10 11 1
16 10 13 1
17 16 17 1
18 16 18 1
19 16 19 1
20 19 20 1
21 20 21 1
22 20 33 1
23 20 34 1
24 21 22 1
25 21 27 1
26 21 35 1
27 22 29 1
28 22 30 1
29 22 37 1
30 23 24 1
31 23 27 1
32 23 36 1
33 24 28 1
34 24 30 1
35 24 38 1
36 25 26 1
37 25 31 2
38 25 32 1
39 26 41 1
40 26 42 1
41 26 43 1
42 28 40 1
43 29 39 1
44 30 32 1
45 32 44 1
46 11 23 1
@<TRIPOS>SUBSTRUCTURE
1 DG 1 GROUP 1 **** DG
2 HYD 16 GROUP 1 **** HYD
