@<TRIPOS>MOLECULE
RAH
43 45 2
SMALL
USER_CHARGES
@<TRIPOS>ATOM
1	P	3.265	7.893	-3.814	P	1	HYD	1.166200
2	O1P	2.374	6.703	-4.072	O2	1	HYD	-0.776000
3	O2P	2.864	9.230	-4.389	O2	1	HYD	-0.776000
4	C5'	5.597	8.127	-3.611	CT	1	HYD	-0.199861
5	O5'	4.549	7.569	-4.405	OS	1	HYD	-0.498900
6	C4'	6.568	7.011	-3.184	CT	1	HYD	-0.733448
7	O4'	6.000	5.994	-2.319	OS	1	HYD	0.603719
8	C3'	7.142	6.312	-4.426	CT	1	HYD	-0.201255
9	O3'	7.849	7.255	-5.236	OH	1	HYD	-0.259896
10	C2'	7.356	4.156	-3.113	CT	1	HYD	1.701141
11	O2'	8.259	3.119	-2.716	OH	1	HYD	-0.755060
12	C1'	6.782	4.856	-1.871	CT	1	HYD	0.039400
13	C16	9.903	4.443	-5.207	C	1	HYD	0.597200
14	C17	10.381	3.623	-6.421	CT	1	HYD	-0.366200
15	N98	7.983	5.169	-3.995	NT	1	HYD	-0.523549
16	O98	10.862	5.077	-4.357	O	1	HYD	-0.567900
17	N99	8.433	4.484	-5.192	N	1	HYD	-0.384531
18	HO2'	8.833	3.444	-2.019	HO	1	HYD	0.221777
19	HO3'	8.605	6.826	-5.641	HO	1	HYD	0.145309
20	H1'	7.619	5.257	-1.250	H2	1	HYD	0.200700
21	H2'	6.528	3.667	-3.680	H2	1	HYD	-0.214096
22	H3'	6.305	5.909	-5.047	H2	1	HYD	-0.508221
23	H4'	7.396	7.500	-2.617	H1	1	HYD	0.624556
24	H95	10.431	4.270	-7.297	HC	1	HYD	0.112300
25	H96	9.680	2.812	-6.611	HC	1	HYD	0.112300
26	H97	11.369	3.213	-6.216	HC	1	HYD	0.112300
27	H99	7.656	3.964	-5.879	H	1	HYD	0.107708
28	H5'1	5.171	8.598	-2.725	H1	1	HYD	0.226253
29	H5'2	6.135	8.874	-4.194	H1	1	HYD	0.226253
30	N1	5.134	0.481	-0.167	N.2	2	RA	-0.761500
31	C2	6.356	1.001	-0.262	C.2	2	RA	0.587500
32	N3	6.725	2.179	-0.716	N.2	2	RA	-0.699700
33	C4	5.655	2.893	-1.121	C.2	2	RA	0.305300
34	C5	4.348	2.496	-1.086	C.2	2	RA	0.051500
35	C6	4.082	1.215	-0.578	C.2	2	RA	0.700900
36	N6	2.849	0.697	-0.485	N.pl3	2	RA	-0.901900
37	N7	3.524	3.496	-1.584	N.2	2	RA	-0.607300
38	C8	4.345	4.449	-1.900	C.2	2	RA	0.200600
39	N9	5.666	4.158	-1.647	N.pl3	2	RA	-0.025100
40	H2	7.166	0.359	0.086	H	2	RA	0.047300
41	H8	4.018	5.396	-2.328	H	2	RA	0.155300
42	H61	2.718	-0.232	-0.111	H	2	RA	0.411500
43	H62	2.051	1.236	-0.789	H	2	RA	0.411500
@<TRIPOS>BOND
1 1 2 1
2 1 3 1
3 1 5 1
4 4 5 1
5 4 6 1
6 4 28 1
7 4 29 1
8 6 7 1
9 6 8 1
10 6 23 1
11 7 12 1
12 8 9 1
13 8 22 1
14 9 19 1
15 10 11 1
16 10 12 1
17 10 15 1
18 10 21 1
19 11 18 1
20 12 20 1
21 13 14 1
22 13 16 2
23 13 17 1
24 14 24 1
25 14 25 1
26 14 26 1
27 8 15 1
28 15 17 1
29 17 27 1
30 30 31 1
31 30 35 2
32 31 32 2
33 31 40 1
34 32 33 1
35 33 34 2
36 33 39 1
37 34 35 1
38 34 37 1
39 35 36 1
40 36 42 1
41 36 43 1
42 37 38 2
43 38 39 1
44 38 41 1
45 12 39 1
@<TRIPOS>SUBSTRUCTURE
1 HYD 1 GROUP 1 **** HYD
2 RA 30 GROUP 1 **** RA
