@<TRIPOS>MOLECULE
RCH
41 42 2
SMALL
USER_CHARGES
@<TRIPOS>ATOM
1	P	3.265	7.893	-3.814	P	1	HYD	1.166200
2	O1P	2.374	6.703	-4.072	O2	1	HYD	-0.776000
3	O2P	2.864	9.230	-4.389	O2	1	HYD	-0.776000
4	C5'	5.597	8.127	-3.611	CT	1	HYD	-0.199553
5	O5'	4.549	7.569	-4.405	OS	1	HYD	-0.498900
6	C4'	6.568	7.011	-3.184	CT	1	HYD	-0.725373
7	O4'	6.000	5.994	-2.319	OS	1	HYD	0.578413
8	C3'	7.142	6.312	-4.426	CT	1	HYD	-0.198482
9	O3'	7.849	7.255	-5.236	OH	1	HYD	-0.250464
10	C2'	7.356	4.156	-3.113	CT	1	HYD	1.708383
11	O2'	8.259	3.119	-2.716	OH	1	HYD	-0.755545
12	C1'	6.782	4.856	-1.871	CT	1	HYD	0.006600
13	C16	9.903	4.443	-5.207	C	1	HYD	0.597200
14	C17	10.381	3.623	-6.421	CT	1	HYD	-0.366200
15	N98	7.983	5.169	-3.995	NT	1	HYD	-0.531474
16	O98	10.862	5.077	-4.357	O	1	HYD	-0.567900
17	N99	8.433	4.484	-5.192	N	1	HYD	-0.383963
18	HO2'	8.833	3.444	-2.019	HO	1	HYD	0.221678
19	HO3'	8.605	6.826	-5.641	HO	1	HYD	0.145185
20	H1'	7.619	5.257	-1.250	H2	1	HYD	0.202900
21	H2'	6.528	3.667	-3.680	H2	1	HYD	-0.206867
22	H3'	6.305	5.909	-5.047	H2	1	HYD	-0.504439
23	H4'	7.396	7.500	-2.617	H1	1	HYD	0.623823
24	H95	10.431	4.270	-7.297	HC	1	HYD	0.112300
25	H96	9.680	2.812	-6.611	HC	1	HYD	0.112300
26	H97	11.369	3.213	-6.216	HC	1	HYD	0.112300
27	H99	7.656	3.964	-5.879	H	1	HYD	0.106771
28	H5'1	5.171	8.598	-2.725	H1	1	HYD	0.224354
29	H5'2	6.135	8.874	-4.194	H1	1	HYD	0.224354
30	N1	5.666	4.158	-1.647	N.pl3	2	RC	-0.048400
31	C2	5.853	2.891	-1.100	C.2	2	RC	0.753800
32	O2	7.001	2.521	-0.831	O.2	2	RC	-0.625200
33	N3	4.764	2.108	-0.883	N.2	2	RC	-0.758400
34	C4	3.536	2.547	-1.188	C.2	2	RC	0.818500
35	N4	2.508	1.746	-0.956	N.pl3	2	RC	-0.953000
36	C5	3.323	3.847	-1.751	C.2	2	RC	-0.521500
37	C6	4.423	4.613	-1.961	C.2	2	RC	0.005300
38	H5	2.324	4.204	-1.999	H	2	RC	0.192800
39	H6	4.309	5.609	-2.388	H	2	RC	0.195800
40	H41	1.571	2.051	-1.176	H	2	RC	0.423400
41	H42	2.661	0.830	-0.559	H	2	RC	0.423400
@<TRIPOS>BOND
1 1 2 1
2 1 3 1
3 1 5 1
4 4 5 1
5 4 6 1
6 4 28 1
7 4 29 1
8 6 7 1
9 6 8 1
10 6 23 1
11 7 12 1
12 8 9 1
13 8 22 1
14 9 19 1
15 10 11 1
16 10 12 1
17 10 15 1
18 10 21 1
19 11 18 1
20 12 20 1
21 13 14 1
22 13 16 2
23 13 17 1
24 14 24 1
25 14 25 1
26 14 26 1
27 8 15 1
28 15 17 1
29 17 27 1
30 30 31 1
31 30 37 1
32 31 32 2
33 31 33 1
34 33 34 2
35 34 35 1
36 34 36 1
37 35 40 1
38 35 41 1
39 36 37 2
40 36 38 1
41 37 39 1
42 12 30 1
@<TRIPOS>SUBSTRUCTURE
1 HYD 1 GROUP 1 **** HYD
2 RC 30 GROUP 1 **** RC
