@<TRIPOS>MOLECULE
RGH
44 46 2
SMALL
USER_CHARGES
@<TRIPOS>ATOM
1	P	3.265	7.893	-3.814	P	1	HYD	1.166200
2	O1P	2.374	6.703	-4.072	O2	1	HYD	-0.776000
3	O2P	2.864	9.230	-4.389	O2	1	HYD	-0.776000
4	C5'	5.597	8.127	-3.611	CT	1	HYD	-0.199851
5	O5'	4.549	7.569	-4.405	OS	1	HYD	-0.498900
6	C4'	6.568	7.011	-3.184	CT	1	HYD	-0.727780
7	O4'	6.000	5.994	-2.319	OS	1	HYD	0.586862
8	C3'	7.142	6.312	-4.426	CT	1	HYD	-0.198891
9	O3'	7.849	7.255	-5.236	OH	1	HYD	-0.253731
10	C2'	7.356	4.156	-3.113	CT	1	HYD	1.702637
11	O2'	8.259	3.119	-2.716	OH	1	HYD	-0.755413
12	C1'	6.782	4.856	-1.871	CT	1	HYD	0.019100
13	C16	9.903	4.443	-5.207	C	1	HYD	0.597200
14	C17	10.381	3.623	-6.421	CT	1	HYD	-0.366200
15	N98	7.983	5.169	-3.995	NT	1	HYD	-0.526546
16	O98	10.862	5.077	-4.357	O	1	HYD	-0.567900
17	N99	8.433	4.484	-5.192	N	1	HYD	-0.384315
18	HO2'	8.833	3.444	-2.019	HO	1	HYD	0.221714
19	HO3'	8.605	6.826	-5.641	HO	1	HYD	0.145243
20	H1'	7.619	5.257	-1.250	H2	1	HYD	0.200600
21	H2'	6.528	3.667	-3.680	H2	1	HYD	-0.209079
22	H3'	6.305	5.909	-5.047	H2	1	HYD	-0.504673
23	H4'	7.396	7.500	-2.617	H1	1	HYD	0.623772
24	H95	10.431	4.270	-7.297	HC	1	HYD	0.112300
25	H96	9.680	2.812	-6.611	HC	1	HYD	0.112300
26	H97	11.369	3.213	-6.216	HC	1	HYD	0.112300
27	H99	7.656	3.964	-5.879	H	1	HYD	0.107129
28	H5'1	5.171	8.598	-2.725	H1	1	HYD	0.224861
29	H5'2	6.135	8.874	-4.194	H1	1	HYD	0.224861
30	N1	5.185	0.505	-0.172	N.pl3	2	RG	-0.478700
31	C2	6.474	0.995	-0.248	C.2	2	RG	0.765700
32	N2	7.438	0.180	0.188	N.pl3	2	RG	-0.967200
33	N3	6.771	2.203	-0.722	N.2	2	RG	-0.632300
34	C4	5.664	2.886	-1.117	C.2	2	RG	0.122200
35	C5	4.351	2.483	-1.079	C.2	2	RG	0.174400
36	C6	4.033	1.195	-0.574	C.2	2	RG	0.477000
37	O6	2.932	0.661	-0.462	O.2	2	RG	-0.559700
38	N7	3.516	3.480	-1.579	N.2	2	RG	-0.570900
39	C8	4.342	4.447	-1.899	C.2	2	RG	0.137400
40	N9	5.666	4.158	-1.647	N.pl3	2	RG	0.049200
41	H1	5.063	-0.425	0.203	H	2	RG	0.342400
42	H8	4.011	5.394	-2.326	H	2	RG	0.164000
43	H21	8.403	0.478	0.160	H	2	RG	0.436400
44	H22	7.203	-0.735	0.546	H	2	RG	0.436400
@<TRIPOS>BOND
1 1 2 1
2 1 3 1
3 1 5 1
4 4 5 1
5 4 6 1
6 4 28 1
7 4 29 1
8 6 7 1
9 6 8 1
10 6 23 1
11 7 12 1
12 8 9 1
13 8 22 1
14 9 19 1
15 10 11 1
16 10 12 1
17 10 15 1
18 10 21 1
19 11 18 1
20 12 20 1
21 13 14 1
22 13 16 2
23 13 17 1
24 14 24 1
25 14 25 1
26 14 26 1
27 8 15 1
28 15 17 1
29 17 27 1
30 30 31 1
31 30 36 1
32 30 41 1
33 31 32 1
34 31 33 2
35 32 43 1
36 32 44 1
37 33 34 1
38 34 35 2
39 34 40 1
40 35 36 1
41 35 38 1
42 36 37 2
43 38 39 2
44 39 40 1
45 39 42 1
46 12 40 1
@<TRIPOS>SUBSTRUCTURE
1 HYD 1 GROUP 1 **** HYD
2 RG 30 GROUP 1 **** RG
