@<TRIPOS>MOLECULE
RGO
64 66 2
SMALL
USER_CHARGES
@<TRIPOS>ATOM
1	P1	6.493	7.034	-6.104	P	1	POS	1.166200
2	O3P	5.202	6.281	-6.321	O2	1	POS	-0.776000
3	O4P	6.503	8.178	-5.121	O2	1	POS	-0.776000
4	O01	6.845	7.605	-7.390	OS	1	POS	-0.538625
5	C10	5.870	8.583	-7.761	CT	1	POS	0.333640
6	C11	6.236	9.179	-9.134	CT	1	POS	-0.048453
7	C12	5.203	10.279	-9.496	CT	1	POS	0.034624
8	C13	5.536	10.986	-10.825	CT	1	POS	0.008038
9	C14	4.450	12.041	-11.140	CT	1	POS	0.019540
10	C15	4.774	12.837	-12.421	CT	1	POS	0.113947
11	C16	3.708	14.474	-13.809	C	1	POS	0.597200
12	C17	2.620	15.493	-14.065	CT	1	POS	-0.366200
13	O98	4.584	14.249	-14.655	O	1	POS	-0.567900
14	N99	3.724	13.828	-12.691	N	1	POS	-0.494697
15	H11	3.010	14.005	-12.000	H	1	POS	0.251527
16	H12	4.864	12.149	-13.265	H1	1	POS	0.034246
17	H13	5.737	13.353	-12.296	H1	1	POS	0.034246
18	H14	3.487	11.538	-11.264	HC	1	POS	0.004303
19	H15	4.359	12.737	-10.303	HC	1	POS	0.004303
20	H16	5.591	10.268	-11.637	HC	1	POS	-0.004201
21	H17	6.510	11.481	-10.748	HC	1	POS	-0.004201
22	H18	4.213	9.835	-9.557	HC	1	POS	-0.028577
23	H19	5.176	11.025	-8.701	HC	1	POS	-0.028577
24	H23	7.208	9.652	-8.997	HC	1	POS	0.021994
25	H24	6.248	8.421	-9.918	HC	1	POS	0.021994
26	H25	5.849	9.377	-7.015	H1	1	POS	-0.020586
27	H26	4.888	8.114	-7.819	H1	1	POS	-0.020586
28	H95	3.056	16.467	-14.228	HC	1	POS	0.112300
29	H96	1.954	15.545	-13.216	HC	1	POS	0.112300
30	H97	2.049	15.213	-14.939	HC	1	POS	0.112300
31	P	3.063	8.025	-4.135	P	2	RG	1.166200
32	O1P	3.223	8.856	-5.350	O.2	2	RG	-0.776000
33	O2P	1.891	7.121	-4.118	O	2	RG	-0.776000
34	C5'	5.621	7.881	-3.587	C.3	2	RG	0.055800
35	O5'	4.397	7.181	-3.881	O.3	2	RG	-0.498900
36	C4'	6.718	6.889	-3.258	C.3	2	RG	0.106500
37	O4'	6.486	6.363	-1.919	O.3	2	RG	-0.354800
38	C3'	6.776	5.641	-4.140	C.3	2	RG	0.202200
39	O3'	7.398	5.908	-5.390	O	2	RG	-0.524600
40	C2'	7.566	4.726	-3.208	C.3	2	RG	0.067000
41	O2'	8.949	5.085	-3.166	O.3	2	RG	-0.613900
42	C1'	6.874	5.000	-1.877	C.3	2	RG	0.019100
43	N1	5.185	0.505	-0.172	N.pl3	2	RG	-0.478700
44	C2	6.474	0.995	-0.248	C.2	2	RG	0.765700
45	N2	7.438	0.180	0.188	N.pl3	2	RG	-0.967200
46	N3	6.771	2.203	-0.722	N.2	2	RG	-0.632300
47	C4	5.664	2.886	-1.117	C.2	2	RG	0.122200
48	C5	4.351	2.483	-1.079	C.2	2	RG	0.174400
49	C6	4.033	1.195	-0.574	C.2	2	RG	0.477000
50	O6	2.932	0.661	-0.462	O.2	2	RG	-0.559700
51	N7	3.516	3.480	-1.579	N.2	2	RG	-0.570900
52	C8	4.342	4.447	-1.899	C.2	2	RG	0.137400
53	N9	5.666	4.158	-1.647	N.pl3	2	RG	0.049200
54	HO'2	9.266	5.035	-2.261	H	2	RG	0.418600
55	H1	5.063	-0.425	0.203	H	2	RG	0.342400
56	H8	4.011	5.394	-2.326	H	2	RG	0.164000
57	H1'	7.560	4.764	-1.063	H	2	RG	0.200600
58	H21	8.403	0.478	0.160	H	2	RG	0.436400
59	H3'	5.823	5.221	-4.460	H	2	RG	0.061500
60	H22	7.203	-0.735	0.546	H	2	RG	0.436400
61	H4'	7.638	7.457	-3.394	H	2	RG	0.117400
62	H2'1	7.570	3.677	-3.505	H	2	RG	0.097200
63	H5'1	5.462	8.536	-2.730	H	2	RG	0.067900
64	H5'2	5.916	8.473	-4.453	H	2	RG	0.067900
@<TRIPOS>BOND
1 1 2 1
2 1 3 1
3 1 4 1
4 4 5 1
5 5 6 1
6 5 26 1
7 5 27 1
8 6 7 1
9 6 24 1
10 6 25 1
11 7 8 1
12 7 22 1
13 7 23 1
14 8 9 1
15 8 20 1
16 8 21 1
17 9 10 1
18 9 18 1
19 9 19 1
20 10 14 1
21 10 16 1
22 10 17 1
23 11 12 1
24 11 13 2
25 11 14 1
26 12 28 1
27 12 29 1
28 12 30 1
29 14 15 1
30 31 32 2
31 31 33 1
32 31 35 1
33 34 35 1
34 34 36 1
35 34 63 1
36 34 64 1
37 36 37 1
38 36 38 1
39 36 61 1
40 37 42 1
41 38 39 1
42 38 40 1
43 38 59 1
44 40 41 1
45 40 42 1
46 40 62 1
47 41 54 1
48 42 53 1
49 42 57 1
50 43 44 1
51 43 49 1
52 43 55 1
53 44 45 1
54 44 46 2
55 45 58 1
56 45 60 1
57 46 47 1
58 47 48 2
59 47 53 1
60 48 49 1
61 48 51 1
62 49 50 2
63 51 52 2
64 52 53 1
65 52 56 1
66 1 39 1
@<TRIPOS>SUBSTRUCTURE
1 POS 1 GROUP 1 **** POS
2 RG 31 GROUP 1 **** RG
