@<TRIPOS>MOLECULE
RUO
60 61 2
SMALL
USER_CHARGES
@<TRIPOS>ATOM
1	P1	6.494	7.035	-6.104	P	1	POS	1.166200
2	O3P	5.202	6.284	-6.321	O2	1	POS	-0.776000
3	O4P	6.505	8.179	-5.121	O2	1	POS	-0.776000
4	O01	6.845	7.606	-7.390	OS	1	POS	-0.538625
5	C10	5.872	8.585	-7.761	CT	1	POS	0.333640
6	C11	6.238	9.181	-9.134	CT	1	POS	-0.048453
7	C12	5.206	10.282	-9.495	CT	1	POS	0.034624
8	C13	5.540	10.989	-10.824	CT	1	POS	0.008038
9	C14	4.454	12.045	-11.139	CT	1	POS	0.019540
10	C15	4.779	12.841	-12.420	CT	1	POS	0.113947
11	C16	3.714	14.479	-13.807	C	1	POS	0.597200
12	C17	2.627	15.500	-14.063	CT	1	POS	-0.366200
13	O98	4.589	14.254	-14.653	O	1	POS	-0.567900
14	N99	3.730	13.834	-12.690	N	1	POS	-0.494697
15	H11	3.016	14.011	-11.998	H	1	POS	0.251527
16	H12	4.868	12.153	-13.263	H1	1	POS	0.034246
17	H13	5.743	13.356	-12.295	H1	1	POS	0.034246
18	H14	3.490	11.543	-11.262	HC	1	POS	0.004303
19	H15	4.364	12.741	-10.301	HC	1	POS	0.004303
20	H16	5.593	10.271	-11.636	HC	1	POS	-0.004201
21	H17	6.514	11.482	-10.747	HC	1	POS	-0.004201
22	H18	4.216	9.839	-9.556	HC	1	POS	-0.028577
23	H19	5.180	11.028	-8.700	HC	1	POS	-0.028577
24	H23	7.211	9.653	-8.997	HC	1	POS	0.021994
25	H24	6.248	8.423	-9.917	HC	1	POS	0.021994
26	H25	5.852	9.379	-7.014	H1	1	POS	-0.020586
27	H26	4.889	8.117	-7.818	H1	1	POS	-0.020586
28	H95	3.065	16.474	-14.226	HC	1	POS	0.112300
29	H96	1.962	15.552	-13.213	HC	1	POS	0.112300
30	H97	2.056	15.221	-14.937	HC	1	POS	0.112300
31	P	3.063	8.025	-4.135	P	2	RU	1.166200
32	O1P	3.223	8.856	-5.350	O.2	2	RU	-0.776000
33	O2P	1.891	7.121	-4.118	O	2	RU	-0.776000
34	C5'	5.621	7.881	-3.587	C.3	2	RU	0.055800
35	O5'	4.397	7.181	-3.881	O.3	2	RU	-0.498900
36	C4'	6.719	6.889	-3.258	C.3	2	RU	0.106500
37	O4'	6.486	6.364	-1.919	O.3	2	RU	-0.354800
38	C3'	6.776	5.642	-4.140	C.3	2	RU	0.202200
39	O3'	7.397	5.908	-5.390	O	2	RU	-0.524600
40	C2'	7.567	4.725	-3.208	C.3	2	RU	0.067000
41	O2'	8.962	4.910	-3.068	O.3	2	RU	-0.613900
42	C1'	6.874	4.999	-1.877	C.3	2	RU	0.067400
43	N1	5.666	4.158	-1.647	N.pl3	2	RU	0.041800
44	C2	5.867	2.911	-1.107	C.2	2	RU	0.468700
45	O2	6.971	2.482	-0.819	O.2	2	RU	-0.547700
46	N3	4.725	2.160	-0.908	N.pl3	2	RU	-0.354900
47	C4	3.431	2.543	-1.197	C.2	2	RU	0.595200
48	O4	2.487	1.783	-0.974	O.2	2	RU	-0.576100
49	C5	3.322	3.869	-1.760	C.2	2	RU	-0.363500
50	C6	4.416	4.621	-1.964	C.2	2	RU	-0.112600
51	HO'2	9.314	4.251	-2.464	H	2	RU	0.418600
52	H3	4.849	1.239	-0.512	H	2	RU	0.315400
53	H5	2.340	4.264	-2.022	H	2	RU	0.181100
54	H6	4.307	5.618	-2.390	H	2	RU	0.218800
55	H1'	7.559	4.762	-1.063	H	2	RU	0.182400
56	H3'	5.822	5.223	-4.460	H	2	RU	0.061500
57	H4'	7.640	7.456	-3.394	H	2	RU	0.117400
58	H2'1	7.551	3.712	-3.610	H	2	RU	0.097200
59	H5'1	5.462	8.536	-2.730	H	2	RU	0.067900
60	H5'2	5.916	8.473	-4.453	H	2	RU	0.067900
@<TRIPOS>BOND
1 1 2 1
2 1 3 1
3 1 4 1
4 4 5 1
5 5 6 1
6 5 26 1
7 5 27 1
8 6 7 1
9 6 24 1
10 6 25 1
11 7 8 1
12 7 22 1
13 7 23 1
14 8 9 1
15 8 20 1
16 8 21 1
17 9 10 1
18 9 18 1
19 9 19 1
20 10 14 1
21 10 16 1
22 10 17 1
23 11 12 1
24 11 13 2
25 11 14 1
26 12 28 1
27 12 29 1
28 12 30 1
29 14 15 1
30 31 32 2
31 31 33 1
32 31 35 1
33 34 35 1
34 34 36 1
35 34 59 1
36 34 60 1
37 36 37 1
38 36 38 1
39 36 57 1
40 37 42 1
41 38 39 1
42 38 40 1
43 38 56 1
44 40 41 1
45 40 42 1
46 40 58 1
47 41 51 1
48 42 43 1
49 42 55 1
50 43 44 1
51 43 50 1
52 44 45 2
53 44 46 1
54 46 47 1
55 46 52 1
56 47 48 2
57 47 49 1
58 49 50 2
59 49 53 1
60 50 54 1
61 1 39 1
@<TRIPOS>SUBSTRUCTURE
1 POS 1 GROUP 1 **** POS
2 RU 31 GROUP 1 **** RU
