# created with PyMOL 2.3.3
@<TRIPOS>MOLECULE
deoxythymidine
32 33 1                 
SMALL
USER_CHARGES
@<TRIPOS>ATOM
1	   P	-0.356	9.218	1.848	 P	1	DT 	0.000	
2	 O1P	-0.311	10.489	2.605	O.2	1	DT 	0.000	
3	 O2P	-1.334	9.156	0.740	O.3	1	DT 	0.000	
4	 C5'	2.021	8.156	2.146	C.3	1	DT 	0.000	
5	 O5'	1.105	8.869	1.295	O.3	1	DT 	0.000	
6	 C4'	2.726	7.072	1.355	C.3	1	DT 	0.000	
7	 O4'	1.986	5.817	1.352	O.3	1	DT 	0.000	
8	 C3'	2.952	7.370	-0.127	C.3	1	DT 	0.000	
9	 O3'	4.210	6.832	-0.518	O.3	1	DT 	0.000	
10	 C2'	1.848	6.598	-0.850	C.3	1	DT 	0.000	
11	 C1'	1.913	5.344	0.016	C.3	1	DT 	0.000	
12	  N1	0.711	4.472	-0.101	N.pl3	1	DT 	0.000	
13	  C2	0.911	3.116	-0.009	C.2	1	DT 	0.000	
14	  O2	2.010	2.617	0.161	O.2	1	DT 	0.000	
15	  N3	-0.226	2.339	-0.123	N.pl3	1	DT 	0.000	
16	  C4	-1.513	2.797	-0.316	C.2	1	DT 	0.000	
17	  O4	-2.454	2.004	-0.403	O.2	1	DT 	0.000	
18	  C5	-1.622	4.234	-0.400	C.2	1	DT 	0.000	
19	  C7 	-2.989	4.816	-0.610	C.3	1	DT 	0.000	
20	  C6	-0.533	5.013	-0.293	C.2	1	DT 	0.000	
21	 H5'1	1.466	7.698	2.965	 H	1	DT 	0.000	
22	 H5'2	2.760	8.851	2.545	 H	1	DT 	0.000	
23	 H4'	3.682	7.016	1.876	 H	1	DT 	0.000	
24	 H3'	2.938	8.438	-0.347	 H	1	DT 	0.000	
25	 H2'1	1.969	6.459	-1.924	 H	1	DT 	0.000	
26	 H2'2	0.881	7.097	-0.793	 H	1	DT 	0.000	
27	 H1'	2.762	4.737	-0.298	 H	1	DT 	0.000	
28	  H3	-0.103	1.339	-0.059	 H	1	DT 	0.000	
29	 H71	-3.675	4.406	0.131	 H	1	DT 	0.000	
30	 H72	-2.944	5.900	-0.502	 H	1	DT 	0.000	
31	 H73	-3.342	4.564	-1.610	 H	1	DT 	0.000	
32	  H6	-0.641	6.096	-0.360	 H	1	DT 	0.000	
@<TRIPOS>BOND
1 1 2 2
2 1 3 1
3 1 5 1
4 4 5 1
5 4 6 1
6 4 21 1
7 4 22 1
8 6 7 1
9 6 8 1
10 6 23 1
11 7 11 1
12 8 9 1
13 8 10 1
14 8 24 1
15 10 11 1
16 10 25 1
17 10 26 1
18 11 12 1
19 11 27 1
20 12 13 1
21 12 20 1
22 13 14 2
23 13 15 1
24 15 16 1
25 15 28 1
26 16 17 2
27 16 18 1
28 18 19 1
29 18 20 2
30 19 29 1
31 19 30 1
32 19 31 1
33 20 32 1
@<TRIPOS>SUBSTRUCTURE
1	DT 	1	GROUP	1 ****	DT
