# created with PyMOL 2.3.3
@<TRIPOS>MOLECULE
deoxyguanosine
33 35 1                 
SMALL
USER_CHARGES
@<TRIPOS>ATOM
1	   P	-0.356	9.218	1.848	 P	1	DG 	0.000	
2	 O1P	-0.311	10.489	2.605	O.2	1	DG 	0.000	
3	 O2P	-1.334	9.156	0.740	O.3	1	DG 	0.000	
4	 C5'	2.021	8.156	2.146	C.3	1	DG 	0.000	
5	 O5'	1.105	8.869	1.295	O.3	1	DG 	0.000	
6	 C4'	2.726	7.072	1.355	C.3	1	DG 	0.000	
7	 O4'	1.986	5.817	1.352	O.3	1	DG 	0.000	
8	 C3'	2.952	7.370	-0.127	C.3	1	DG 	0.000	
9	 O3'	4.210	6.832	-0.518	O.3	1	DG 	0.000	
10	 C2'	1.848	6.598	-0.850	C.3	1	DG 	0.000	
11	 C1'	1.913	5.344	0.016	C.3	1	DG 	0.000	
12	  N1	0.233	0.533	0.025	N.pl3	1	DG 	0.000	
13	  C2	1.516	1.023	0.172	C.2	1	DG 	0.000	
14	  N2	2.476	0.111	0.344	N.pl3	1	DG 	0.000	
15	  N3	1.811	2.321	0.149	N.2	1	DG 	0.000	
16	  C4	0.709	3.095	-0.035	C.2	1	DG 	0.000	
17	  C5	-0.599	2.700	-0.190	C.2	1	DG 	0.000	
18	  C6	-0.914	1.317	-0.165	C.2	1	DG 	0.000	
19	  O6	-2.010	0.775	-0.284	O.2	1	DG 	0.000	
20	  N7	-1.430	3.807	-0.354	N.2	1	DG 	0.000	
21	  C8	-0.606	4.826	-0.294	C.2	1	DG 	0.000	
22	  N9	0.711	4.472	-0.101	N.pl3	1	DG 	0.000	
23	 H5'1	1.466	7.698	2.965	 H	1	DG 	0.000	
24	 H5'2	2.760	8.851	2.545	 H	1	DG 	0.000	
25	 H4'	3.682	7.016	1.876	 H	1	DG 	0.000	
26	 H3'	2.938	8.438	-0.347	 H	1	DG 	0.000	
27	 H2'1	1.969	6.459	-1.924	 H	1	DG 	0.000	
28	 H2'2	0.881	7.097	-0.793	 H	1	DG 	0.000	
29	 H1'	2.762	4.737	-0.298	 H	1	DG 	0.000	
30	 H1 	0.111	-0.469	0.057	 H	1	DG 	0.000	
31	 H21	3.436	0.404	0.458	 H	1	DG 	0.000	
32	 H22	2.242	-0.871	0.360	 H	1	DG 	0.000	
33	 H8 	-0.934	5.861	-0.389	 H	1	DG 	0.000	
@<TRIPOS>BOND
1 1 2 2
2 1 3 1
3 1 5 1
4 4 5 1
5 4 6 1
6 4 23 1
7 4 24 1
8 6 7 1
9 6 8 1
10 6 25 1
11 7 11 1
12 8 9 1
13 8 10 1
14 8 26 1
15 10 11 1
16 10 27 1
17 10 28 1
18 11 22 1
19 11 29 1
20 12 13 1
21 12 18 1
22 12 30 1
23 13 14 1
24 13 15 2
25 14 31 1
26 14 32 1
27 15 16 1
28 16 17 2
29 16 22 1
30 17 18 1
31 17 20 1
32 18 19 2
33 20 21 2
34 21 22 1
35 21 33 1
@<TRIPOS>SUBSTRUCTURE
1	DG 	1	GROUP	1 ****	DG
