# created with PyMOL 2.3.3
@<TRIPOS>MOLECULE
uridine
30 31 1                 
SMALL
USER_CHARGES
@<TRIPOS>ATOM
1	   P	3.063	8.025	-4.135	 P	1	RU1	0.000	
2	 O1P	3.223	8.856	-5.350	O.2	1	RU1	0.000	
3	 O2P	1.891	7.121	-4.118	 O	1	RU1	0.000	
4	 C5'	5.621	7.881	-3.587	C.3	1	RU1	0.000	
5	 O5'	4.397	7.181	-3.881	O.3	1	RU1	0.000	
6	 C4'	6.719	6.889	-3.258	C.3	1	RU1	0.000	
7	 O4'	6.486	6.364	-1.919	O.3	1	RU1	0.000	
8	 C3'	6.776	5.642	-4.140	C.3	1	RU1	0.000	
9	 O3'	7.397	5.908	-5.390	 O	1	RU1	0.000	
10	 C2'	7.567	4.725	-3.208	C.3	1	RU1	0.000	
11	 O2'	8.962	4.910	-3.068	O.3	1	RU1	0.000	
12	 C1'	6.874	4.999	-1.877	C.3	1	RU1	0.000	
13	  N1	5.666	4.158	-1.647	N.pl3	1	RU1	0.000	
14	  C2	5.867	2.911	-1.107	C.2	1	RU1	0.000	
15	  O2	6.971	2.482	-0.819	O.2	1	RU1	0.000	
16	  N3	4.725	2.160	-0.908	N.pl3	1	RU1	0.000	
17	  C4	3.431	2.543	-1.197	C.2	1	RU1	0.000	
18	  O4	2.487	1.783	-0.974	O.2	1	RU1	0.000	
19	  C5	3.322	3.869	-1.760	C.2	1	RU1	0.000	
20	  C6	4.416	4.621	-1.964	C.2	1	RU1	0.000	
21	HO'2	9.314	4.251	-2.464	 H	1	RU1	0.000	
22	  H3	4.849	1.239	-0.512	 H	1	RU1	0.000	
23	  H5	2.340	4.264	-2.022	 H	1	RU1	0.000	
24	  H6	4.307	5.618	-2.390	 H	1	RU1	0.000	
25	 H1'	7.559	4.762	-1.063	 H	1	RU1	0.000	
26	 H3'	5.822	5.223	-4.460	 H	1	RU1	0.000	
27	 H4'	7.640	7.456	-3.394	 H	1	RU1	0.000	
28	H2'1	7.551	3.712	-3.610	 H	1	RU1	0.000	
29	H5'1	5.462	8.536	-2.730	 H	1	RU1	0.000	
30	H5'2	5.916	8.473	-4.453	 H	1	RU1	0.000	
@<TRIPOS>BOND
1 1 2 2
2 1 3 1
3 1 5 1
4 4 5 1
5 4 6 1
6 4 29 1
7 4 30 1
8 6 7 1
9 6 8 1
10 6 27 1
11 7 12 1
12 8 9 1
13 8 10 1
14 8 26 1
15 10 11 1
16 10 12 1
17 10 28 1
18 11 21 1
19 12 13 1
20 12 25 1
21 13 14 1
22 13 20 1
23 14 15 2
24 14 16 1
25 16 17 1
26 16 22 1
27 17 18 2
28 17 19 1
29 19 20 2
30 19 23 1
31 20 24 1
@<TRIPOS>SUBSTRUCTURE
1	RU1	1	GROUP	1 A	RU
