@<TRIPOS>MOLECULE
ETH
   35    35     1     0     0
SMALL
rc


@<TRIPOS>ATOM
      1 N1           0.1320    -0.5410     0.0450 NT         1 ETH      -1.448144
      2 N6          -2.0840    -0.7590     0.2770 NT         1 ETH      -1.537301
      3 C7          -1.7460     0.7100     0.2200 CM         1 ETH       0.181987
      4 C9          -0.2440     0.9160     0.0750 CM         1 ETH       1.344996
      5 C10          0.4210     2.2860    -0.0090 CT         1 ETH      -2.499358
      6 C11         -0.5000     3.5170     0.0840 CV         1 ETH       1.221321
      7 C12         -0.0220     4.9710    -0.0470 CA         1 ETH      -0.807186
      8 C13         -1.4660     7.2100     0.0870 CT         1 ETH      -0.430096
      9 C14         -2.9450     7.6010     0.2710 CT         1 ETH       0.183845
     10 C15         -3.0780     9.1390     0.2320 CT         1 ETH      -0.054676
     11 C16         -4.8150    10.7840     0.3420 C          1 ETH       0.597200
     12 C17         -6.2640    11.1770     0.5320 CT         1 ETH      -0.366200
     13 N96         -1.9470     3.4530     0.3110 NB         1 ETH      -0.510869
     14 N97         -2.3520     4.8400     0.3190 NB         1 ETH      -0.244950
     15 N98         -1.2500     5.7590     0.1120 N*         1 ETH       0.556529
     16 O98         -3.9460    11.6400     0.1240 O          1 ETH      -0.567900
     17 N99         -4.4790     9.5400     0.4090 N          1 ETH      -0.455482
     18 H11          1.0790    -0.8860    -0.0280 H          1 ETH       0.530579
     19 H12         -0.6380    -1.1910     0.1070 H          1 ETH       0.530579
     20 H61         -1.2530    -1.3280     0.2020 H          1 ETH       0.545444
     21 H62         -3.0020    -1.1770     0.3510 H          1 ETH       0.545444
     22 H85         -2.5800     1.4100     0.2270 HA         1 ETH      -0.020809
     23 H86          0.9150     2.2760    -0.9810 HC         1 ETH       0.646916
     24 H87          1.1730     2.3340     0.7780 HC         1 ETH       0.646916
     25 H88          0.9930     5.3340    -0.2190 H4         1 ETH       0.293520
     26 H89         -1.1230     7.5980    -0.8700 H1         1 ETH       0.140273
     27 H90         -0.9130     7.6340     0.9230 H1         1 ETH       0.140273
     28 H91         -3.5390     7.1640    -0.5320 HC         1 ETH       0.023407
     29 H92         -3.3030     7.2310     1.2310 HC         1 ETH       0.023407
     30 H93         -2.7000     9.5120    -0.7240 H1         1 ETH       0.086791
     31 H94         -2.4690     9.5770     1.0360 H1         1 ETH       0.086791
     32 H95         -6.3590    11.8420     1.3750 HC         1 ETH       0.112300
     33 H96         -6.8650    10.2960     0.7070 HC         1 ETH       0.112300
     34 H97         -6.6310    11.6760    -0.3550 HC         1 ETH       0.112300
     35 H99         -5.1850     8.8380     0.5820 H          1 ETH       0.279852
@<TRIPOS>BOND
     1     1     4 1   
     2     1    18 1   
     3     1    19 1   
     4     2     3 1   
     5     2    20 1   
     6     2    21 1   
     7     3     4 2   
     8     3    22 1   
     9     4     5 1   
    10     5     6 1   
    11     5    23 1   
    12     5    24 1   
    13     6     7 2   
    14     6    13 1   
    15     7    15 1   
    16     7    25 1   
    17     8     9 1   
    18     8    15 1   
    19     8    26 1   
    20     8    27 1   
    21     9    10 1   
    22     9    28 1   
    23     9    29 1   
    24    10    17 1   
    25    10    30 1   
    26    10    31 1   
    27    11    12 1   
    28    11    16 2   
    29    11    17 1   
    30    12    32 1   
    31    12    33 1   
    32    12    34 1   
    33    13    14 2   
    34    14    15 1   
    35    17    35 1   
@<TRIPOS>SUBSTRUCTURE
     1 ETH         1 TEMP              0 ****  ****    0 ROOT
