# created with PyMOL 2.3.3
@<TRIPOS>MOLECULE
MLE_capped
35 34 1                 
SMALL
USER_CHARGES
@<TRIPOS>ATOM
1	  C7	24.875	51.571	22.153	C.2	1	MLE1	0.000	
2	  C8	24.475	51.080	20.749	C.2	1	MLE1	0.000	
3	  C9	23.024	51.362	20.318	C.2	1	MLE1	0.000	
4	 C10	21.005	51.343	19.018	C.3	1	MLE1	0.000	
5	 C11	20.337	50.788	17.745	C.3	1	MLE1	0.000	
6	 C12	18.866	51.280	17.695	C.3	1	MLE1	0.000	
7	 C13	18.139	50.834	16.410	C.3	1	MLE1	0.000	
8	 C14	16.673	51.326	16.444	C.3	1	MLE1	0.000	
9	 C15	15.918	50.977	15.145	C.3	1	MLE1	0.000	
10	 C16	13.678	51.112	14.305	C.2	1	MLE1	0.000	
11	 C17	12.256	51.621	14.389	C.3	1	MLE1	0.000	
12	 N98	22.416	50.932	19.049	N.pl3	1	MLE1	0.000	
13	 O98	14.036	50.369	13.382	O.2	1	MLE1	0.000	
14	 N99	14.531	51.457	15.210	N.pl3	1	MLE1	0.000	
15	 O99	22.059	52.085	21.087	O.2	1	MLE1	0.000	
16	 H01	24.845	52.635	22.387	 H	1	MLE1	0.000	
17	 H02	25.188	50.854	22.912	 H	1	MLE1	0.000	
18	 H11	14.243	52.060	15.967	 H	1	MLE1	0.000	
19	 H12	15.932	49.895	14.995	 H	1	MLE1	0.000	
20	 H13	16.426	51.447	14.290	 H	1	MLE1	0.000	
21	 H14	16.160	50.866	17.293	 H	1	MLE1	0.000	
22	 H15	16.652	52.409	16.587	 H	1	MLE1	0.000	
23	 H16	18.157	49.753	16.317	 H	1	MLE1	0.000	
24	 H17	18.643	51.255	15.534	 H	1	MLE1	0.000	
25	 H18	18.333	50.905	18.564	 H	1	MLE1	0.000	
26	 H19	18.847	52.369	17.746	 H	1	MLE1	0.000	
27	 H23	20.878	51.237	16.912	 H	1	MLE1	0.000	
28	 H24	20.356	49.699	17.716	 H	1	MLE1	0.000	
29	 H25	20.944	52.431	19.015	 H	1	MLE1	0.000	
30	 H26	20.492	50.953	19.897	 H	1	MLE1	0.000	
31	 H71	25.179	50.563	20.097	 H	1	MLE1	0.000	
32	 H95	12.016	52.196	13.507	 H	1	MLE1	0.000	
33	 H96	12.139	52.250	15.260	 H	1	MLE1	0.000	
34	 H97	11.569	50.790	14.464	 H	1	MLE1	0.000	
35	 H98	22.894	50.432	18.314	 H	1	MLE1	0.000	
@<TRIPOS>BOND
1 1 2 2
2 1 16 1
3 1 17 1
4 2 3 1
5 2 31 1
6 3 12 1
7 3 15 2
8 4 5 1
9 4 12 1
10 4 29 1
11 4 30 1
12 5 6 1
13 5 27 1
14 5 28 1
15 6 7 1
16 6 25 1
17 6 26 1
18 7 8 1
19 7 23 1
20 7 24 1
21 8 9 1
22 8 21 1
23 8 22 1
24 9 14 1
25 9 19 1
26 9 20 1
27 10 11 1
28 10 13 2
29 10 14 1
30 11 32 1
31 11 33 1
32 11 34 1
33 12 35 1
34 14 18 1
@<TRIPOS>SUBSTRUCTURE
1	MLE1	1	GROUP	1 ****	MLE
