# created with PyMOL 2.3.3
@<TRIPOS>MOLECULE
POS_capped
35 34 1                 
SMALL
USER_CHARGES
@<TRIPOS>ATOM
1	 P  	23.003	51.452	20.255	P.3	1	POS1	0.000	
2	 O1P	22.330	50.744	21.406	O.co2	1	POS1	0.000	
3	 O5'	24.580	51.202	20.539	O.3	1	POS1	0.000	
4	 O2P	22.901	52.955	20.176	O.co2	1	POS1	0.000	
5	 C10	21.005	51.343	19.018	C.3	1	POS1	0.000	
6	 C11	20.337	50.788	17.745	C.3	1	POS1	0.000	
7	 C12	18.866	51.280	17.695	C.3	1	POS1	0.000	
8	 C13	18.139	50.834	16.410	C.3	1	POS1	0.000	
9	 C14	16.673	51.326	16.444	C.3	1	POS1	0.000	
10	 C15	15.918	50.977	15.145	C.3	1	POS1	0.000	
11	 C16	13.678	51.112	14.305	C.2	1	POS1	0.000	
12	 C17	12.256	51.621	14.389	C.3	1	POS1	0.000	
13	 O98	14.036	50.369	13.382	O.2	1	POS1	0.000	
14	 N99	14.531	51.457	15.210	N.pl3	1	POS1	0.000	
15	 C01	24.791	51.849	21.796	C.3	1	POS1	0.000	
16	 H01	24.508	52.899	21.718	 H	1	POS1	0.000	
17	 H02	25.844	51.776	22.071	 H	1	POS1	0.000	
18	 H03	24.183	51.365	22.560	 H	1	POS1	0.000	
19	 O01	22.377	50.942	19.050	O.3	1	POS1	0.000	
20	 H11	14.243	52.060	15.967	 H	1	POS1	0.000	
21	 H12	15.932	49.895	14.995	 H	1	POS1	0.000	
22	 H13	16.426	51.447	14.290	 H	1	POS1	0.000	
23	 H14	16.160	50.866	17.293	 H	1	POS1	0.000	
24	 H15	16.652	52.409	16.587	 H	1	POS1	0.000	
25	 H16	18.157	49.753	16.317	 H	1	POS1	0.000	
26	 H17	18.643	51.255	15.534	 H	1	POS1	0.000	
27	 H18	18.333	50.905	18.564	 H	1	POS1	0.000	
28	 H19	18.847	52.369	17.746	 H	1	POS1	0.000	
29	 H21	20.878	51.237	16.912	 H	1	POS1	0.000	
30	 H22	20.356	49.699	17.716	 H	1	POS1	0.000	
31	 H23	20.944	52.431	19.015	 H	1	POS1	0.000	
32	 H24	20.492	50.953	19.897	 H	1	POS1	0.000	
33	 H95	12.016	52.196	13.507	 H	1	POS1	0.000	
34	 H96	12.139	52.250	15.260	 H	1	POS1	0.000	
35	 H97	11.569	50.790	14.464	 H	1	POS1	0.000	
@<TRIPOS>BOND
1 1 3 1
2 1 4 1
3 1 2 2
4 3 15 1
5 5 6 1
6 5 19 1
7 5 31 1
8 5 32 1
9 6 7 1
10 6 29 1
11 6 30 1
12 7 8 1
13 7 27 1
14 7 28 1
15 8 9 1
16 8 25 1
17 8 26 1
18 9 10 1
19 9 23 1
20 9 24 1
21 10 14 1
22 10 21 1
23 10 22 1
24 11 12 1
25 11 13 2
26 11 14 1
27 12 33 1
28 12 34 1
29 12 35 1
30 14 20 1
31 15 16 1
32 15 17 1
33 15 18 1
34 1 19 1
@<TRIPOS>SUBSTRUCTURE
1	POS1	1	GROUP	1 ****	POS
