# created with PyMOL 2.3.3
@<TRIPOS>MOLECULE
deoxycytidine
30 31 1                 
SMALL
USER_CHARGES
@<TRIPOS>ATOM
1	   P	-0.356	-9.218	-1.848	 P	1	DC  	0.000	
2	 O1P	-0.311	-10.489	-2.605	O.2	1	DC  	0.000	
3	 O2P	-1.334	-9.156	-0.740	O.3	1	DC  	0.000	
4	 C5'	2.021	-8.156	-2.146	C.3	1	DC  	0.000	
5	 O5'	1.105	-8.869	-1.295	O.3	1	DC  	0.000	
6	 C4'	2.726	-7.072	-1.355	C.3	1	DC  	0.000	
7	 O4'	1.986	-5.817	-1.352	O.3	1	DC  	0.000	
8	 C3'	2.952	-7.370	0.127	C.3	1	DC  	0.000	
9	 O3'	4.210	-6.832	0.518	O.3	1	DC  	0.000	
10	 C2'	1.848	-6.598	0.850	C.3	1	DC  	0.000	
11	 C1'	1.913	-5.344	-0.016	C.3	1	DC  	0.000	
12	  N1	0.711	-4.472	0.101	N.pl3	1	DC  	0.000	
13	  C2	0.897	-3.095	0.010	C.2	1	DC  	0.000	
14	  O2	2.040	-2.657	-0.163	O.2	1	DC  	0.000	
15	  N3	-0.186	-2.282	0.115	N.2	1	DC  	0.000	
16	  C4	-1.409	-2.796	0.302	C.2	1	DC  	0.000	
17	  N4	-2.433	-1.963	0.398	N.pl3	1	DC  	0.000	
18	  C5	-1.621	-4.210	0.399	C.2	1	DC  	0.000	
19	  C6	-0.526	-5.004	0.292	C.2	1	DC  	0.000	
20	 H5'1	1.466	-7.698	-2.965	 H	1	DC  	0.000	
21	 H5'2	2.760	-8.851	-2.545	 H	1	DC  	0.000	
22	 H4'	3.682	-7.016	-1.876	 H	1	DC  	0.000	
23	 H3'	2.938	-8.438	0.347	 H	1	DC  	0.000	
24	 H2'1	1.969	-6.459	1.924	 H	1	DC  	0.000	
25	 H2'2	0.881	-7.097	0.793	 H	1	DC  	0.000	
26	 H1'	2.762	-4.737	0.298	 H	1	DC  	0.000	
27	 H41	-3.366	-2.324	0.539	 H	1	DC  	0.000	
28	 H42	-2.282	-0.967	0.330	 H	1	DC  	0.000	
29	 H5 	-2.616	-4.628	0.552	 H	1	DC  	0.000	
30	 H6 	-0.640	-6.086	0.360	 H	1	DC  	0.000	
@<TRIPOS>BOND
1 1 2 2
2 1 3 1
3 1 5 1
4 4 5 1
5 4 6 1
6 4 20 1
7 4 21 1
8 6 7 1
9 6 8 1
10 6 22 1
11 7 11 1
12 8 9 1
13 8 10 1
14 8 23 1
15 10 11 1
16 10 24 1
17 10 25 1
18 11 12 1
19 11 26 1
20 12 13 1
21 12 19 1
22 13 14 2
23 13 15 1
24 15 16 2
25 16 17 1
26 16 18 1
27 17 27 1
28 17 28 1
29 18 19 2
30 18 29 1
31 19 30 1
@<TRIPOS>SUBSTRUCTURE
1	DC  	1	GROUP	1 ****	DC
