# created with PyMOL 2.3.3
@<TRIPOS>MOLECULE
guanosine
34 36 1                 
SMALL
USER_CHARGES
@<TRIPOS>ATOM
1	   P	3.063	8.025	-4.135	 P	1	RG1	0.000	
2	 O1P	3.223	8.856	-5.350	O.2	1	RG1	0.000	
3	 O2P	1.891	7.121	-4.118	 O	1	RG1	0.000	
4	 C5'	5.621	7.881	-3.587	C.3	1	RG1	0.000	
5	 O5'	4.397	7.181	-3.881	O.3	1	RG1	0.000	
6	 C4'	6.718	6.889	-3.258	C.3	1	RG1	0.000	
7	 O4'	6.486	6.363	-1.919	O.3	1	RG1	0.000	
8	 C3'	6.776	5.641	-4.140	C.3	1	RG1	0.000	
9	 O3'	7.398	5.908	-5.390	 O	1	RG1	0.000	
10	 C2'	7.566	4.726	-3.208	C.3	1	RG1	0.000	
11	 O2'	8.949	5.085	-3.166	O.3	1	RG1	0.000	
12	 C1'	6.874	5.000	-1.877	C.3	1	RG1	0.000	
13	  N1	5.185	0.505	-0.172	N.pl3	1	RG1	0.000	
14	  C2	6.474	0.995	-0.248	C.2	1	RG1	0.000	
15	  N2	7.438	0.180	0.188	N.pl3	1	RG1	0.000	
16	  N3	6.771	2.203	-0.722	N.2	1	RG1	0.000	
17	  C4	5.664	2.886	-1.117	C.2	1	RG1	0.000	
18	  C5	4.351	2.483	-1.079	C.2	1	RG1	0.000	
19	  C6	4.033	1.195	-0.574	C.2	1	RG1	0.000	
20	  O6	2.932	0.661	-0.462	O.2	1	RG1	0.000	
21	  N7	3.516	3.480	-1.579	N.2	1	RG1	0.000	
22	  C8	4.342	4.447	-1.899	C.2	1	RG1	0.000	
23	  N9	5.666	4.158	-1.647	N.pl3	1	RG1	0.000	
24	HO'2	9.266	5.035	-2.261	 H	1	RG1	0.000	
25	  H1	5.063	-0.425	0.203	 H	1	RG1	0.000	
26	  H8	4.011	5.394	-2.326	 H	1	RG1	0.000	
27	 H1'	7.560	4.764	-1.063	 H	1	RG1	0.000	
28	 H21	8.403	0.478	0.160	 H	1	RG1	0.000	
29	 H3'	5.823	5.221	-4.460	 H	1	RG1	0.000	
30	 H22	7.203	-0.735	0.546	 H	1	RG1	0.000	
31	 H4'	7.638	7.457	-3.394	 H	1	RG1	0.000	
32	H2'1	7.570	3.677	-3.505	 H	1	RG1	0.000	
33	H5'1	5.462	8.536	-2.730	 H	1	RG1	0.000	
34	H5'2	5.916	8.473	-4.453	 H	1	RG1	0.000	
@<TRIPOS>BOND
1 1 2 2
2 1 3 1
3 1 5 1
4 4 5 1
5 4 6 1
6 4 33 1
7 4 34 1
8 6 7 1
9 6 8 1
10 6 31 1
11 7 12 1
12 8 9 1
13 8 10 1
14 8 29 1
15 10 11 1
16 10 12 1
17 10 32 1
18 12 23 1
19 12 27 1
20 13 14 1
21 13 19 1
22 13 25 1
23 14 15 1
24 14 16 2
25 15 28 1
26 15 30 1
27 16 17 1
28 17 18 2
29 17 23 1
30 18 19 1
31 18 21 1
32 19 20 2
33 21 22 2
34 22 23 1
35 22 26 1
36 11 24 1
@<TRIPOS>SUBSTRUCTURE
1	RG1	1	GROUP	1 A	RG
