# created with PyMOL 2.3.3
@<TRIPOS>MOLECULE
ETH_capped
35 35 1                 
SMALL
USER_CHARGES
@<TRIPOS>ATOM
1	  N1	0.132	-0.541	0.045	N.pl3	1	ETH1	0.000	
2	  N6	-2.084	-0.759	0.277	N.pl3	1	ETH1	0.000	
3	  C7	-1.746	0.710	0.220	C.2	1	ETH1	0.000	
4	  C9	-0.244	0.916	0.075	C.2	1	ETH1	0.000	
5	 C10	0.421	2.286	-0.009	C.3	1	ETH1	0.000	
6	 C11	-0.500	3.517	0.084	C.2	1	ETH1	0.000	
7	 C12	-0.022	4.971	-0.047	C.2	1	ETH1	0.000	
8	 C13	-1.466	7.210	0.087	C.3	1	ETH1	0.000	
9	 C14	-2.945	7.601	0.271	C.3	1	ETH1	0.000	
10	 C15	-3.078	9.139	0.232	C.3	1	ETH1	0.000	
11	 C16	-4.815	10.784	0.342	C.2	1	ETH1	0.000	
12	 C17	-6.264	11.177	0.532	C.3	1	ETH1	0.000	
13	 N96	-1.947	3.453	0.311	N.2	1	ETH1	0.000	
14	 N97	-2.352	4.840	0.319	N.2	1	ETH1	0.000	
15	 N98	-1.250	5.759	0.112	N.pl3	1	ETH1	0.000	
16	 O98	-3.946	11.640	0.124	O.2	1	ETH1	0.000	
17	 N99	-4.479	9.540	0.409	N.pl3	1	ETH1	0.000	
18	 H11	1.079	-0.886	-0.028	 H	1	ETH1	0.000	
19	 H12	-0.638	-1.191	0.107	 H	1	ETH1	0.000	
20	 H61	-1.253	-1.328	0.202	 H	1	ETH1	0.000	
21	 H62	-3.002	-1.177	0.351	 H	1	ETH1	0.000	
22	 H85	-2.580	1.410	0.227	 H	1	ETH1	0.000	
23	 H86	0.915	2.276	-0.981	 H	1	ETH1	0.000	
24	 H87	1.173	2.334	0.778	 H	1	ETH1	0.000	
25	 H88	0.993	5.334	-0.219	 H	1	ETH1	0.000	
26	 H89	-1.123	7.598	-0.870	 H	1	ETH1	0.000	
27	 H90	-0.913	7.634	0.923	 H	1	ETH1	0.000	
28	 H91	-3.539	7.164	-0.532	 H	1	ETH1	0.000	
29	 H92	-3.303	7.231	1.231	 H	1	ETH1	0.000	
30	 H93	-2.700	9.512	-0.724	 H	1	ETH1	0.000	
31	 H94	-2.469	9.577	1.036	 H	1	ETH1	0.000	
32	 H95	-6.359	11.842	1.375	 H	1	ETH1	0.000	
33	 H96	-6.865	10.296	0.707	 H	1	ETH1	0.000	
34	 H97	-6.631	11.676	-0.355	 H	1	ETH1	0.000	
35	 H99	-5.185	8.838	0.582	 H	1	ETH1	0.000	
@<TRIPOS>BOND
1 1 4 1
2 1 18 1
3 1 19 1
4 2 3 1
5 2 20 1
6 2 21 1
7 3 4 2
8 3 22 1
9 4 5 1
10 5 6 1
11 5 23 1
12 5 24 1
13 6 7 2
14 6 13 1
15 7 15 1
16 7 25 1
17 8 9 1
18 8 15 1
19 8 26 1
20 8 27 1
21 9 10 1
22 9 28 1
23 9 29 1
24 10 17 1
25 10 30 1
26 10 31 1
27 11 12 1
28 11 16 2
29 11 17 1
30 12 32 1
31 12 33 1
32 12 34 1
33 13 14 2
34 14 15 1
35 17 35 1
@<TRIPOS>SUBSTRUCTURE
1	ETH1	1	GROUP	1 ****	ETH
