@<TRIPOS>MOLECULE
HYD
   37    37     1     0     0
SMALL
rc


@<TRIPOS>ATOM
      1 P           -0.2940     9.2990     0.5800 P          1 HYD       1.166200
      2 C5'          1.7100     8.6600     1.6350 CT         1 HYD      -0.199861
      3 O5'          1.1400     9.1520     0.4210 OS         1 HYD      -0.498900
      4 C4'          2.4910     7.3650     1.3480 CT         1 HYD      -0.733448
      5 O4'          1.6900     6.2500     0.8790 OS         1 HYD       0.603719
      6 C2'          3.3890     5.2470    -0.5180 CT         1 HYD       1.701141
      7 C1'          2.2930     4.9780     0.5260 CT         1 HYD       0.039400
      8 C01         -2.4610     8.8080     1.4690 CT         1 HYD      -0.750720
      9 O01         -1.1150     8.3510     1.6090 OS         1 HYD       0.290484
     10 C16          6.5520     6.2120    -0.6500 C          1 HYD       0.597200
     11 C17          7.5580     6.4100    -1.8000 CT         1 HYD      -0.366200
     12 O98          7.0120     5.7540     0.6240 O          1 HYD      -0.567900
     13 N99          5.2150     6.6350    -1.0910 N          1 HYD      -0.384531
     14 N97          1.3070     4.0350    -0.0220 NT         1 HYD      -0.415443
     15 N98          4.2510     6.3550    -0.0440 NT         1 HYD      -0.523549
     16 O1P         -0.9000     8.9580    -0.7590 O2         1 HYD      -0.776000
     17 O2'          4.1160     4.0430    -0.7850 OH         1 HYD      -0.755060
     18 O2P         -0.5140    10.6840     1.1380 O2         1 HYD      -0.776000
     19 C3'          3.5870     7.6340     0.3050 CT         1 HYD      -0.201255
     20 O3'          4.4960     8.6240     0.7930 OH         1 HYD      -0.259896
     21 HO2'         4.3160     3.6000     0.0430 HO         1 HYD       0.221777
     22 HO3'         5.3820     8.4240     0.4870 HO         1 HYD       0.145309
     23 H01         -2.5110     9.8730     1.7010 H1         1 HYD       0.050712
     24 H1'          2.7570     4.5650     1.4540 H2         1 HYD       0.200700
     25 H02         -3.1070     8.2570     2.1550 H1         1 HYD       0.050712
     26 H03         -2.7970     8.6430     0.4460 H1         1 HYD       0.050712
     27 H2'          2.9170     5.5610    -1.4800 H2         1 HYD      -0.214096
     28 H3'          3.1230     8.0460    -0.6250 H2         1 HYD      -0.508221
     29 H4'          2.9630     7.0500     2.3090 H1         1 HYD       0.624556
     30 H93          0.6000     4.5440    -0.5320 H          1 HYD       0.145672
     31 H94          1.7690     3.3860    -0.6430 H          1 HYD       0.145672
     32 H95          7.9240     7.4370    -1.7880 HC         1 HYD       0.112300
     33 H96          7.0660     6.2130    -2.7510 HC         1 HYD       0.112300
     34 H97          8.3950     5.7250    -1.6720 HC         1 HYD       0.112300
     35 H99          4.8420     7.0010    -2.1270 H          1 HYD       0.107708
     36 H5'1         0.9160     8.4550     2.3530 H1         1 HYD       0.226253
     37 H5'2         2.3860     9.4090     2.0480 H1         1 HYD       0.226253
@<TRIPOS>BOND
     1     1     3 1   
     2     1     9 1   
     3     1    16 1   
     4     1    18 1   
     5     2     3 1   
     6     2     4 1   
     7     2    36 1   
     8     2    37 1   
     9     4     5 1   
    10     4    19 1   
    11     4    29 1   
    12     5     7 1   
    13     6     7 1   
    14     6    15 1   
    15     6    17 1   
    16     6    27 1   
    17     7    14 1   
    18     7    24 1   
    19     8     9 1   
    20     8    23 1   
    21     8    25 1   
    22     8    26 1   
    23    10    11 1   
    24    10    12 2   
    25    10    13 1   
    26    11    32 1   
    27    11    33 1   
    28    11    34 1   
    29    13    15 1   
    30    13    35 1   
    31    14    30 1   
    32    14    31 1   
    33    17    21 1   
    34    15    19 1   
    35    19    20 1   
    36    19    28 1   
    37    20    22 1   
@<TRIPOS>SUBSTRUCTURE
     1 HYD         1 TEMP              0 ****  ****    0 ROOT
