@<TRIPOS>MOLECULE
DAEE
59 63 2
SMALL
USER_CHARGES
@<TRIPOS>ATOM
1	P	-0.356	-9.218	-1.848	P	1	DAE	1.165900
2	O1P	-0.311	-10.489	-2.605	O.2	1	DAE	-0.776100
3	O2P	-1.334	-9.156	-0.740	O.3	1	DAE	-0.776100
4	C5'	2.021	-8.156	-2.146	C.3	1	DAE	-0.006900
5	O5'	1.105	-8.869	-1.295	O.3	1	DAE	-0.495400
6	C4'	2.726	-7.072	-1.355	C.3	1	DAE	0.162900
7	O4'	1.986	-5.817	-1.352	O.3	1	DAE	-0.369100
8	C3'	2.952	-7.370	0.127	C.3	1	DAE	0.071300
9	O3'	4.210	-6.832	0.518	O.3	1	DAE	-0.523200
10	C2'	1.848	-6.598	0.850	C.3	1	DAE	-0.085400
11	C1'	1.913	-5.344	-0.016	C.3	1	DAE	0.043100
12	N1	0.158	-0.514	-0.016	N.2	1	DAE	-0.762400
13	C2	1.380	-1.027	-0.154	C.2	1	DAE	0.571600
14	N3	1.758	-2.286	-0.143	N.2	1	DAE	-0.741700
15	C4	0.700	-3.103	0.037	C.2	1	DAE	0.380000
16	C5	-0.604	-2.728	0.192	C.2	1	DAE	0.072500
17	C6	-0.881	-1.351	0.162	C.2	1	DAE	0.689700
18	N6	-2.113	-0.841	0.301	N.pl3	1	DAE	-0.912300
19	N7	-1.415	-3.843	0.354	N.2	1	DAE	-0.617500
20	C8	-0.589	-4.841	0.292	C.2	1	DAE	0.160700
21	N9	0.711	-4.472	0.101	N.pl3	1	DAE	-0.026800
22	H2	2.179	-0.300	-0.296	H	1	DAE	0.059800
23	H8	-0.904	-5.880	0.384	H	1	DAE	0.187700
24	H1'	2.762	-4.737	0.298	H	1	DAE	0.183800
25	H3'	2.938	-8.438	0.347	H	1	DAE	0.098500
26	H4'	3.682	-7.016	-1.876	H	1	DAE	0.117600
27	H2'1	1.969	-6.459	1.924	H	1	DAE	0.071800
28	H2'2	0.881	-7.097	0.793	H	1	DAE	0.071800
29	H5'1	1.466	-7.698	-2.965	H	1	DAE	0.075400
30	H5'2	2.760	-8.851	-2.545	H	1	DAE	0.075400
31	C7	-1.641	0.643	0.232	CM	2	DAE	0.181987
32	C9	-0.145	0.851	0.040	CM	2	DAE	1.344996
33	C10	0.518	2.222	-0.049	CT	2	DAE	-2.499358
34	C11	-0.399	3.452	0.090	CV	2	DAE	1.221321
35	C12	0.075	4.907	-0.039	CA	2	DAE	-0.807186
36	C13	-1.363	7.144	0.172	CT	2	DAE	-0.430096
37	C14	-2.835	7.533	0.410	CT	2	DAE	0.183845
38	C15	-2.969	9.071	0.395	CT	2	DAE	-0.054676
39	C16	-4.700	10.715	0.584	C	2	DAE	0.597200
40	C17	-6.142	11.105	0.827	CT	2	DAE	-0.366200
41	N96	-1.838	3.385	0.365	NB	2	DAE	-0.510869
42	N97	-2.242	4.771	0.403	NB	2	DAE	-0.244950
43	N98	-1.147	5.693	0.171	N*	2	DAE	0.556529
44	O98	-3.839	11.573	0.347	O	2	DAE	-0.567900
45	N99	-4.363	9.470	0.624	N	2	DAE	-0.455482
46	H85	-2.474	1.343	0.276	HA	2	DAE	-0.020809
47	H86	0.979	2.224	-1.037	HC	2	DAE	0.646916
48	H87	1.296	2.260	0.712	HC	2	DAE	0.646916
49	H88	1.083	5.272	-0.240	H4	2	DAE	0.293520
50	H89	-1.052	7.544	-0.791	H1	2	DAE	0.140273
51	H90	-0.782	7.558	0.994	H1	2	DAE	0.140273
52	H91	-3.456	7.106	-0.378	HC	2	DAE	0.023407
53	H92	-3.161	7.151	1.377	HC	2	DAE	0.023407
54	H93	-2.623	9.456	-0.569	H1	2	DAE	0.086791
55	H94	-2.333	9.499	1.183	H1	2	DAE	0.086791
56	H95	-6.208	11.760	1.681	HC	2	DAE	0.112300
57	H96	-6.737	10.222	1.011	HC	2	DAE	0.112300
58	H97	-6.538	11.615	-0.041	HC	2	DAE	0.112300
59	H99	-5.063	8.766	0.811	H	2	DAE	0.279852
@<TRIPOS>BOND
1 1 2 2
2 1 3 1
3 1 5 1
4 4 5 1
5 4 6 1
6 4 29 1
7 4 30 1
8 6 7 1
9 6 8 1
10 6 26 1
11 7 11 1
12 8 9 1
13 8 10 1
14 8 25 1
15 10 11 1
16 10 27 1
17 10 28 1
18 11 21 1
19 11 24 1
20 12 13 1
21 13 14 2
22 13 22 1
23 14 15 1
24 15 16 2
25 15 21 1
26 16 17 1
27 16 19 1
28 12 17 1
29 17 18 2
30 19 20 2
31 20 21 1
32 20 23 1
33 31 32 2
34 31 46 1
35 32 33 1
36 33 34 1
37 33 47 1
38 33 48 1
39 34 35 2
40 34 41 1
41 35 43 1
42 35 49 1
43 36 37 1
44 36 43 1
45 36 50 1
46 36 51 1
47 37 38 1
48 37 52 1
49 37 53 1
50 38 45 1
51 38 54 1
52 38 55 1
53 39 40 1
54 39 44 2
55 39 45 1
56 40 56 1
57 40 57 1
58 40 58 1
59 41 42 2
60 42 43 1
61 45 59 1
62 12 32 1
63 18 31 1
@<TRIPOS>SUBSTRUCTURE
1 DAE 1 GROUP 1 **** DAE
2 DAE 31 GROUP 1 **** DAE
