@<TRIPOS>MOLECULE
DCEE
57 60 2
SMALL
USER_CHARGES
@<TRIPOS>ATOM
1	P	-0.356	-9.218	-1.848	P	1	DCE	1.165900
2	O1P	-0.311	-10.489	-2.605	O.2	1	DCE	-0.776100
3	O2P	-1.334	-9.156	-0.740	O.3	1	DCE	-0.776100
4	C5'	2.021	-8.156	-2.146	C.3	1	DCE	-0.006900
5	O5'	1.105	-8.869	-1.295	O.3	1	DCE	-0.495400
6	C4'	2.726	-7.072	-1.355	C.3	1	DCE	0.162900
7	O4'	1.986	-5.817	-1.352	O.3	1	DCE	-0.369100
8	C3'	2.952	-7.370	0.127	C.3	1	DCE	0.071300
9	O3'	4.210	-6.832	0.518	O.3	1	DCE	-0.523200
10	C2'	1.848	-6.598	0.850	C.3	1	DCE	-0.085400
11	C1'	1.913	-5.344	-0.016	C.3	1	DCE	-0.011600
12	N1	0.711	-4.472	0.101	N.pl3	1	DCE	-0.033900
13	C2	0.897	-3.095	0.010	C.2	1	DCE	0.795900
14	O2	2.040	-2.657	-0.163	O.2	1	DCE	-0.654800
15	N3	-0.186	-2.282	0.115	N.2	1	DCE	-0.774800
16	C4	-1.409	-2.796	0.302	C.2	1	DCE	0.843900
17	N4	-2.433	-1.963	0.398	N.pl3	1	DCE	-0.977300
18	C5	-1.621	-4.210	0.399	C.2	1	DCE	-0.522200
19	C6	-0.526	-5.004	0.292	C.2	1	DCE	-0.018300
20	H5	-2.616	-4.628	0.552	H	1	DCE	0.186300
21	H6	-0.640	-6.086	0.360	H	1	DCE	0.229300
22	H1'	2.762	-4.737	0.298	H	1	DCE	0.196300
23	H3'	2.938	-8.438	0.347	H	1	DCE	0.098500
24	H4'	3.682	-7.016	-1.876	H	1	DCE	0.117600
25	H2'1	1.969	-6.459	1.924	H	1	DCE	0.071800
26	H2'2	0.881	-7.097	0.793	H	1	DCE	0.071800
27	H5'1	1.466	-7.698	-2.965	H	1	DCE	0.075400
28	H5'2	2.760	-8.851	-2.545	H	1	DCE	0.075400
29	C7	-1.587	-0.668	0.288	CM	2	DCE	0.197627
30	C9	-0.088	-0.876	0.115	CM	2	DCE	1.393849
31	C10	0.918	0.264	-0.009	CT	2	DCE	-2.589090
32	C11	0.364	1.698	0.072	CV	2	DCE	1.248588
33	C12	1.211	2.968	-0.098	CA	2	DCE	-0.810525
34	C13	0.424	5.514	0.010	CT	2	DCE	-0.432394
35	C14	-0.891	6.291	0.209	CT	2	DCE	0.184339
36	C15	-0.608	7.808	0.139	CT	2	DCE	-0.055656
37	C16	-1.837	9.861	0.241	C	2	DCE	0.597200
38	C17	-3.123	10.632	0.446	CT	2	DCE	-0.366200
39	N96	-1.042	2.029	0.323	NB	2	DCE	-0.516957
40	N97	-1.060	3.474	0.308	NB	2	DCE	-0.242223
41	N98	0.243	4.059	0.063	N*	2	DCE	0.556270
42	O98	-0.775	10.448	-0.009	O	2	DCE	-0.567900
43	N99	-1.846	8.573	0.330	N	2	DCE	-0.455408
44	H85	-2.202	0.230	0.293	HA	2	DCE	-0.028813
45	H86	1.371	0.105	-0.988	HC	2	DCE	0.668671
46	H87	1.672	0.121	0.765	HC	2	DCE	0.668671
47	H88	2.283	3.042	-0.294	H4	2	DCE	0.293083
48	H89	0.838	5.780	-0.960	H1	2	DCE	0.140747
49	H90	1.088	5.788	0.828	H1	2	DCE	0.140747
50	H91	-1.598	6.017	-0.575	HC	2	DCE	0.023423
51	H92	-1.315	6.047	1.183	HC	2	DCE	0.023423
52	H93	-0.164	8.050	-0.831	H1	2	DCE	0.087198
53	H94	0.113	8.079	0.924	H1	2	DCE	0.087198
54	H95	-3.018	11.311	1.275	HC	2	DCE	0.112300
55	H96	-3.934	9.947	0.649	HC	2	DCE	0.112300
56	H97	-3.361	11.196	-0.446	HC	2	DCE	0.112300
57	H99	-2.710	8.090	0.529	H	2	DCE	0.280031
@<TRIPOS>BOND
1 1 2 2
2 1 3 1
3 1 5 1
4 4 5 1
5 4 6 1
6 4 27 1
7 4 28 1
8 6 7 1
9 6 8 1
10 6 24 1
11 7 11 1
12 8 9 1
13 8 10 1
14 8 23 1
15 10 11 1
16 10 25 1
17 10 26 1
18 11 12 1
19 11 22 1
20 12 13 1
21 12 19 1
22 13 14 2
23 13 15 1
24 15 16 1
25 16 17 2
26 16 18 1
27 18 19 2
28 18 20 1
29 19 21 1
30 29 30 2
31 29 44 1
32 30 31 1
33 31 32 1
34 31 45 1
35 31 46 1
36 32 33 2
37 32 39 1
38 33 41 1
39 33 47 1
40 34 35 1
41 34 41 1
42 34 48 1
43 34 49 1
44 35 36 1
45 35 50 1
46 35 51 1
47 36 43 1
48 36 52 1
49 36 53 1
50 37 38 1
51 37 42 2
52 37 43 1
53 38 54 1
54 38 55 1
55 38 56 1
56 39 40 2
57 40 41 1
58 43 57 1
59 15 30 1
60 17 29 1
@<TRIPOS>SUBSTRUCTURE
1 DCE 1 GROUP 1 **** DCE
2 DCE 29 GROUP 1 **** DCE
