@<TRIPOS>MOLECULE
DCP
87 88 3
SMALL
USER_CHARGES
@<TRIPOS>ATOM
1	O01	-0.988	-8.274	-2.870	OS	1	DCO	-0.540116
2	C10	-2.307	-8.710	-3.209	CT	1	DCO	0.337652
3	C11	-2.914	-7.750	-4.250	CT	1	DCO	-0.059584
4	C12	-4.365	-8.202	-4.563	CT	1	DCO	0.041626
5	C13	-5.080	-7.250	-5.543	CT	1	DCO	0.006917
6	C14	-6.503	-7.779	-5.838	CT	1	DCO	0.017795
7	C15	-7.296	-6.822	-6.752	CT	1	DCO	0.115447
8	C16	-9.401	-6.801	-7.896	C	1	DCO	0.597200
9	C17	-10.784	-7.361	-8.145	CT	1	DCO	-0.366200
10	O98	-8.988	-5.820	-8.527	O	1	DCO	-0.567900
11	N99	-8.641	-7.354	-7.012	N	1	DCO	-0.494803
12	H11	-8.972	-8.157	-6.497	H	1	DCO	0.251530
13	H12	-6.759	-6.689	-7.694	H1	1	DCO	0.033869
14	H13	-7.381	-5.840	-6.265	H1	1	DCO	0.033869
15	H14	-6.429	-8.758	-6.320	HC	1	DCO	0.004519
16	H15	-7.049	-7.908	-4.900	HC	1	DCO	0.004519
17	H16	-4.524	-7.169	-6.471	HC	1	DCO	-0.003782
18	H17	-5.149	-6.249	-5.104	HC	1	DCO	-0.003782
19	H18	-4.346	-9.206	-4.979	HC	1	DCO	-0.029758
20	H19	-4.938	-8.244	-3.637	HC	1	DCO	-0.029758
21	H23	-2.955	-6.777	-3.761	HC	1	DCO	0.023921
22	H24	-2.334	-7.729	-5.172	HC	1	DCO	0.023921
23	H25	-2.929	-8.715	-2.314	H1	1	DCO	-0.020951
24	H26	-2.261	-9.716	-3.625	H1	1	DCO	-0.020951
25	H95	-11.531	-6.609	-7.941	HC	1	DCO	0.112300
26	H96	-10.959	-8.212	-7.502	HC	1	DCO	0.112300
27	H97	-10.876	-7.677	-9.174	HC	1	DCO	0.112300
28	P	-0.356	-9.218	-1.848	P	2	DCO	1.165900
29	O1P	-0.311	-10.489	-2.605	O.2	2	DCO	-0.776100
30	O2P	-1.334	-9.156	-0.740	O.3	2	DCO	-0.776100
31	C5'	2.021	-8.156	-2.146	C.3	2	DCO	-0.006900
32	O5'	1.105	-8.869	-1.295	O.3	2	DCO	-0.495400
33	C4'	2.726	-7.072	-1.355	C.3	2	DCO	0.162900
34	O4'	1.986	-5.817	-1.352	O.3	2	DCO	-0.369100
35	C3'	2.952	-7.370	0.127	C.3	2	DCO	0.071300
36	O3'	4.210	-6.832	0.518	O.3	2	DCO	-0.523200
37	C2'	1.848	-6.598	0.850	C.3	2	DCO	-0.085400
38	C1'	1.913	-5.344	-0.016	C.3	2	DCO	-0.011600
39	N1	0.711	-4.472	0.101	N.pl3	2	DCO	-0.033900
40	C2	0.897	-3.095	0.010	C.2	2	DCO	0.795900
41	O2	2.040	-2.657	-0.163	O.2	2	DCO	-0.654800
42	N3	-0.186	-2.282	0.115	N.2	2	DCO	-0.774800
43	C4	-1.409	-2.796	0.302	C.2	2	DCO	0.843900
44	N4	-2.433	-1.963	0.398	N.pl3	2	DCO	-0.977300
45	C5	-1.621	-4.210	0.399	C.2	2	DCO	-0.522200
46	C6	-0.526	-5.004	0.292	C.2	2	DCO	-0.018300
47	H5	-2.616	-4.628	0.552	H	2	DCO	0.186300
48	H6	-0.640	-6.086	0.360	H	2	DCO	0.229300
49	H1'	2.762	-4.737	0.298	H	2	DCO	0.196300
50	H3'	2.938	-8.438	0.347	H	2	DCO	0.098500
51	H4'	3.682	-7.016	-1.876	H	2	DCO	0.117600
52	H41	-3.366	-2.324	0.539	H	2	DCO	0.431400
53	H42	-2.282	-0.967	0.330	H	2	DCO	0.431400
54	H2'1	1.969	-6.459	1.924	H	2	DCO	0.071800
55	H2'2	0.881	-7.097	0.793	H	2	DCO	0.071800
56	H5'1	1.466	-7.698	-2.965	H	2	DCO	0.075400
57	H5'2	2.760	-8.851	-2.545	H	2	DCO	0.075400
58	P1	5.267	-7.619	-0.426	P	3	DCO	1.165900
59	O3P	5.089	-9.059	-0.008	O2	3	DCO	-0.776100
60	O4P	4.851	-7.218	-1.819	O2	3	DCO	-0.776100
61	O01	6.690	-7.350	-0.338	OS	3	DCO	-0.538081
62	C10	7.386	-8.137	-1.308	CT	3	DCO	0.333113
63	C11	8.899	-7.861	-1.203	CT	3	DCO	-0.048957
64	C12	9.634	-8.677	-2.300	CT	3	DCO	0.035134
65	C13	11.152	-8.402	-2.319	CT	3	DCO	0.007925
66	C14	11.824	-9.272	-3.407	CT	3	DCO	0.019489
67	C15	13.334	-8.980	-3.527	CT	3	DCO	0.113937
68	C16	15.223	-9.866	-4.705	C	3	DCO	0.597200
69	C17	15.827	-10.736	-5.785	CT	3	DCO	-0.366200
70	O98	15.940	-9.195	-3.951	O	3	DCO	-0.567900
71	N99	13.941	-9.822	-4.567	N	3	DCO	-0.494649
72	H11	13.352	-10.369	-5.178	H	3	DCO	0.251508
73	H12	13.818	-9.167	-2.566	H1	3	DCO	0.034245
74	H13	13.481	-7.921	-3.784	H1	3	DCO	0.034245
75	H14	11.680	-10.328	-3.162	HC	3	DCO	0.004309
76	H15	11.348	-9.085	-4.373	HC	3	DCO	0.004309
77	H16	11.593	-8.625	-1.353	HC	3	DCO	-0.004179
78	H17	11.334	-7.345	-2.536	HC	3	DCO	-0.004179
79	H18	9.458	-9.736	-2.137	HC	3	DCO	-0.028664
80	H19	9.222	-8.423	-3.277	HC	3	DCO	-0.028664
81	H23	9.018	-6.801	-1.425	HC	3	DCO	0.022097
82	H24	9.295	-8.130	-0.225	HC	3	DCO	0.022097
83	H25	7.038	-7.875	-2.307	H1	3	DCO	-0.020418
84	H26	7.196	-9.194	-1.123	H1	3	DCO	-0.020418
85	H95	16.402	-10.130	-6.470	HC	3	DCO	0.112300
86	H96	15.045	-11.240	-6.334	HC	3	DCO	0.112300
87	H97	16.477	-11.478	-5.343	HC	3	DCO	0.112300
@<TRIPOS>BOND
1 1 2 1
2 2 3 1
3 2 23 1
4 2 24 1
5 3 4 1
6 3 21 1
7 3 22 1
8 4 5 1
9 4 19 1
10 4 20 1
11 5 6 1
12 5 17 1
13 5 18 1
14 6 7 1
15 6 15 1
16 6 16 1
17 7 11 1
18 7 13 1
19 7 14 1
20 8 9 1
21 8 10 2
22 8 11 1
23 9 25 1
24 9 26 1
25 9 27 1
26 11 12 1
27 28 29 2
28 28 30 1
29 28 32 1
30 31 32 1
31 31 33 1
32 31 56 1
33 31 57 1
34 33 34 1
35 33 35 1
36 33 51 1
37 34 38 1
38 35 36 1
39 35 37 1
40 35 50 1
41 36 58 1
42 37 38 1
43 37 54 1
44 37 55 1
45 38 39 1
46 38 49 1
47 39 40 1
48 39 46 1
49 40 41 2
50 40 42 1
51 42 43 2
52 43 44 1
53 43 45 1
54 44 52 1
55 44 53 1
56 45 46 2
57 45 47 1
58 46 48 1
59 58 59 1
60 58 60 1
61 58 61 1
62 61 62 1
63 62 63 1
64 62 83 1
65 62 84 1
66 63 64 1
67 63 81 1
68 63 82 1
69 64 65 1
70 64 79 1
71 64 80 1
72 65 66 1
73 65 77 1
74 65 78 1
75 66 67 1
76 66 75 1
77 66 76 1
78 67 71 1
79 67 73 1
80 67 74 1
81 68 69 1
82 68 70 2
83 68 71 1
84 69 85 1
85 69 86 1
86 69 87 1
87 71 72 1
88 1 28 1
@<TRIPOS>SUBSTRUCTURE
1 DCO 1 GROUP 1 **** DCO
2 DCO 28 GROUP 2 **** DCO
3 DCO 58 GROUP 3 **** DCO
