@<TRIPOS>MOLECULE
DTM
62 63 2
SMALL
USER_CHARGES
@<TRIPOS>ATOM
1	P	21.114	48.538	19.199	P	1	DTM	1.165900
2	O1P	20.695	47.542	18.188	O.2	1	DTM	-0.776100
3	O2P	22.139	49.513	18.764	O.3	1	DTM	-0.776100
4	C5'	19.083	48.749	20.841	C.3	1	DTM	-0.006900
5	O5'	19.830	49.319	19.750	O.3	1	DTM	-0.495400
6	C4'	18.733	49.827	21.848	C.3	1	DTM	0.162900
7	O4'	19.774	50.007	22.851	O.3	1	DTM	-0.369100
8	C3'	18.526	51.229	21.276	C.3	1	DTM	0.071300
9	O3'	17.477	51.868	21.995	O.3	1	DTM	-0.523200
10	C2'	19.834	51.964	21.570	C.3	1	DTM	-0.085400
11	C1'	20.047	51.395	22.969	C.3	1	DTM	0.068000
12	N1	21.439	51.551	23.474	N.pl3	1	DTM	-0.023900
13	C2	21.595	51.770	24.821	C.2	1	DTM	0.567700
14	O2	20.656	51.838	25.595	O.2	1	DTM	-0.588100
15	N3	22.899	51.911	25.253	N.pl3	1	DTM	-0.434000
16	C4	24.032	51.852	24.467	C.2	1	DTM	0.519400
17	O4	25.150	51.994	24.968	O.2	1	DTM	-0.556300
18	C5	23.767	51.619	23.067	C.2	1	DTM	0.002500
19	C6	22.508	51.479	22.620	C.2	1	DTM	-0.220900
20	C7	24.945	51.542	22.141	C.3	1	DTM	-0.226900
21	H3	23.038	52.073	26.240	H	1	DTM	0.342000
22	H6	22.334	51.304	21.558	H	1	DTM	0.260700
23	H1'	19.405	51.926	23.672	H	1	DTM	0.180400
24	H3'	18.274	51.217	20.215	H	1	DTM	0.098500
25	H4'	17.796	49.444	22.252	H	1	DTM	0.117600
26	H73	25.410	52.524	22.061	H	1	DTM	0.077000
27	H2'1	19.817	53.050	21.480	H	1	DTM	0.071800
28	H2'2	20.632	51.692	20.880	H	1	DTM	0.071800
29	H5'1	19.689	47.986	21.329	H	1	DTM	0.075400
30	H5'2	18.166	48.302	20.456	H	1	DTM	0.075400
31	C8	24.475	51.080	20.749	CD	2	DTM	0.172975
32	C9	25.514	50.923	19.623	C	2	DTM	0.625923
33	C10	26.449	50.549	17.443	CT	2	DTM	0.299394
34	C11	26.115	50.278	15.963	CT	2	DTM	-0.065431
35	C12	27.437	50.220	15.153	CT	2	DTM	-0.043624
36	C13	27.203	49.874	13.668	CT	2	DTM	0.040815
37	C14	28.554	49.870	12.915	CT	2	DTM	0.048821
38	C15	28.390	49.451	11.440	CT	2	DTM	0.052255
39	C16	29.753	49.314	9.474	C	2	DTM	0.597200
40	C17	31.102	49.320	8.789	CT	2	DTM	-0.366200
41	N98	25.209	50.550	18.233	N	2	DTM	-0.836973
42	O98	28.708	49.174	8.824	O	2	DTM	-0.567900
43	N99	29.690	49.458	10.755	N	2	DTM	-0.480660
44	O99	26.924	51.115	19.766	O	2	DTM	-0.554093
45	H11	30.538	49.576	11.289	H	2	DTM	0.274148
46	H12	27.701	50.137	10.941	H1	2	DTM	0.046877
47	H13	27.959	48.440	11.393	H1	2	DTM	0.046877
48	H14	28.992	50.871	12.959	HC	2	DTM	0.012212
49	H15	29.245	49.180	13.405	HC	2	DTM	0.012212
50	H16	26.534	50.595	13.209	HC	2	DTM	-0.011427
51	H17	26.738	48.886	13.586	HC	2	DTM	-0.011427
52	H18	27.946	51.176	15.228	HC	2	DTM	-0.004872
53	H19	28.094	49.466	15.586	HC	2	DTM	-0.004872
54	H23	25.657	49.289	15.945	HC	2	DTM	0.036905
55	H24	25.466	51.046	15.544	HC	2	DTM	0.036905
56	H25	27.115	49.771	17.814	H1	2	DTM	0.024454
57	H26	26.939	51.519	17.533	H1	2	DTM	0.024454
58	H71	23.417	50.874	20.589	HA	2	DTM	0.017448
59	H95	31.259	48.384	8.274	HC	2	DTM	0.112300
60	H96	31.887	49.454	9.519	HC	2	DTM	0.112300
61	H97	31.150	50.127	8.072	HC	2	DTM	0.112300
62	H98	24.291	50.328	17.877	H	2	DTM	0.394703
@<TRIPOS>BOND
1 1 2 2
2 1 3 1
3 1 5 1
4 4 5 1
5 4 6 1
6 4 29 1
7 4 30 1
8 6 7 1
9 6 8 1
10 6 25 1
11 7 11 1
12 8 9 1
13 8 10 1
14 8 24 1
15 10 11 1
16 10 27 1
17 10 28 1
18 11 12 1
19 11 23 1
20 12 13 1
21 12 19 1
22 13 14 2
23 13 15 1
24 15 16 1
25 15 21 1
26 16 17 2
27 16 18 1
28 18 19 2
29 18 20 1
30 19 22 1
31 20 26 1
32 20 31 1
33 31 32 1
34 31 58 1
35 32 41 1
36 32 44 2
37 33 34 1
38 33 41 1
39 33 56 1
40 33 57 1
41 34 35 1
42 34 54 1
43 34 55 1
44 35 36 1
45 35 52 1
46 35 53 1
47 36 37 1
48 36 50 1
49 36 51 1
50 37 38 1
51 37 48 1
52 37 49 1
53 38 43 1
54 38 46 1
55 38 47 1
56 39 40 1
57 39 42 2
58 39 43 1
59 40 59 1
60 40 60 1
61 40 61 1
62 41 62 1
63 43 45 1
@<TRIPOS>SUBSTRUCTURE
1 DTM 1 GROUP 1 **** DTM
2 DTM 31 GROUP 1 **** DTM
