@<TRIPOS>MOLECULE
RAEE
60 64 2
SMALL
USER_CHARGES
@<TRIPOS>ATOM
1	C7	3.333	-0.678	0.067	CM	1	RAE	0.176460
2	C9	4.838	-0.818	0.259	CM	1	RAE	1.327709
3	C10	5.512	-2.081	0.785	CT	1	RAE	-2.467613
4	C11	4.599	-3.278	1.111	CV	1	RAE	1.211673
5	C12	5.087	-4.605	1.710	CA	1	RAE	-0.806005
6	C13	3.657	-6.769	2.335	CT	1	RAE	-0.429281
7	C14	2.180	-7.204	2.303	CT	1	RAE	0.183671
8	C15	2.057	-8.644	2.848	CT	1	RAE	-0.054332
9	C16	0.330	-10.240	3.302	C	1	RAE	0.597200
10	C17	-1.117	-10.679	3.265	CT	1	RAE	-0.366200
11	N96	3.150	-3.298	0.888	NB	1	RAE	-0.508715
12	N97	2.754	-4.612	1.342	NB	1	RAE	-0.245915
13	N98	3.864	-5.406	1.831	N*	1	RAE	0.556622
14	O98	1.207	-10.973	3.783	O	1	RAE	-0.567900
15	N99	0.658	-9.086	2.826	N	1	RAE	-0.455508
16	H85	2.504	-1.344	0.299	HA	1	RAE	-0.017980
17	H86	6.013	-1.749	1.695	HC	1	RAE	0.639221
18	H87	6.259	-2.383	0.051	HC	1	RAE	0.639221
19	H88	6.106	-4.887	1.983	H4	1	RAE	0.293674
20	H89	4.010	-6.818	3.363	H1	1	RAE	0.140104
21	H90	4.207	-7.443	1.681	H1	1	RAE	0.140104
22	H91	1.588	-6.529	2.922	HC	1	RAE	0.023402
23	H92	1.813	-7.173	1.278	HC	1	RAE	0.023402
24	H93	2.444	-8.679	3.871	H1	1	RAE	0.086648
25	H94	2.664	-9.320	2.229	H1	1	RAE	0.086648
26	H95	-1.214	-11.586	2.690	HC	1	RAE	0.112300
27	H96	-1.725	-9.908	2.815	HC	1	RAE	0.112300
28	H97	-1.475	-10.859	4.271	HC	1	RAE	0.112300
29	H99	-0.054	-8.484	2.437	H	1	RAE	0.279789
30	P	3.063	8.025	-4.135	P	2	RAE	1.166200
31	O1P	3.223	8.856	-5.350	O.2	2	RAE	-0.776000
32	O2P	1.891	7.121	-4.118	O	2	RAE	-0.776000
33	C5'	5.621	7.881	-3.587	C.3	2	RAE	0.055800
34	O5'	4.397	7.181	-3.881	O.3	2	RAE	-0.498900
35	C4'	6.718	6.889	-3.258	C.3	2	RAE	0.106500
36	O4'	6.486	6.363	-1.919	O.3	2	RAE	-0.354800
37	C3'	6.776	5.641	-4.140	C.3	2	RAE	0.202200
38	O3'	7.398	5.908	-5.390	O	2	RAE	-0.524600
39	C2'	7.566	4.726	-3.208	C.3	2	RAE	0.067000
40	O2'	8.949	5.085	-3.166	O.3	2	RAE	-0.613900
41	C1'	6.874	5.000	-1.877	C.3	2	RAE	0.039400
42	N1	5.134	0.481	-0.167	N.2	2	RAE	-0.761500
43	C2	6.356	1.001	-0.262	C.2	2	RAE	0.587500
44	N3	6.725	2.179	-0.716	N.2	2	RAE	-0.699700
45	C4	5.655	2.893	-1.121	C.2	2	RAE	0.305300
46	C5	4.348	2.496	-1.086	C.2	2	RAE	0.051500
47	C6	4.082	1.215	-0.578	C.2	2	RAE	0.700900
48	N6	2.849	0.697	-0.485	N.pl3	2	RAE	-0.901900
49	N7	3.524	3.496	-1.584	N.2	2	RAE	-0.607300
50	C8	4.345	4.449	-1.900	C.2	2	RAE	0.200600
51	N9	5.666	4.158	-1.647	N.pl3	2	RAE	-0.025100
52	HO'2	9.266	5.035	-2.261	H	2	RAE	0.418600
53	H2	7.166	0.359	0.086	H	2	RAE	0.047300
54	H8	4.018	5.396	-2.328	H	2	RAE	0.155300
55	H1'	7.560	4.764	-1.063	H	2	RAE	0.200700
56	H3'	5.823	5.221	-4.460	H	2	RAE	0.061500
57	H4'	7.638	7.457	-3.394	H	2	RAE	0.117400
58	H2'1	7.570	3.677	-3.505	H	2	RAE	0.097200
59	H5'1	5.462	8.536	-2.730	H	2	RAE	0.067900
60	H5'2	5.916	8.473	-4.453	H	2	RAE	0.067900
@<TRIPOS>BOND
1 1 2 2
2 1 16 1
3 2 3 1
4 3 4 1
5 3 17 1
6 3 18 1
7 4 5 2
8 4 11 1
9 5 13 1
10 5 19 1
11 6 7 1
12 6 13 1
13 6 20 1
14 6 21 1
15 7 8 1
16 7 22 1
17 7 23 1
18 8 15 1
19 8 24 1
20 8 25 1
21 9 10 1
22 9 14 2
23 9 15 1
24 10 26 1
25 10 27 1
26 10 28 1
27 11 12 2
28 12 13 1
29 15 29 1
30 30 31 2
31 30 32 1
32 30 34 1
33 33 34 1
34 33 35 1
35 33 59 1
36 33 60 1
37 35 36 1
38 35 37 1
39 35 57 1
40 36 41 1
41 37 38 1
42 37 39 1
43 37 56 1
44 39 40 1
45 39 41 1
46 39 58 1
47 40 52 1
48 41 51 1
49 41 55 1
50 42 43 1
51 43 44 2
52 43 53 1
53 44 45 1
54 45 46 2
55 45 51 1
56 46 47 1
57 46 49 1
58 42 47 1
59 47 48 2
60 49 50 2
61 50 51 1
62 50 54 1
63 2 42 1
64 1 48 1
@<TRIPOS>SUBSTRUCTURE
1 RAE 1 GROUP 1 **** RAE
2 RAE 30 GROUP 1 **** RAE
