@<TRIPOS>MOLECULE
RAP
70 72 3
SMALL
USER_CHARGES
@<TRIPOS>ATOM
1	O01	2.659	9.073	-3.098	OS	1	RAH	-0.540583
2	C10	1.420	9.687	-3.461	CT	1	RAH	0.337936
3	C11	1.045	10.747	-2.407	CT	1	RAH	-0.058249
4	C12	-0.329	11.363	-2.782	CT	1	RAH	0.040732
5	C13	-0.822	12.385	-1.737	CT	1	RAH	0.007155
6	C14	-2.174	12.983	-2.191	CT	1	RAH	0.017920
7	C15	-2.756	13.954	-1.143	CT	1	RAH	0.115369
8	C16	-4.602	15.471	-0.962	C	1	RAH	0.597200
9	C17	-5.923	16.020	-1.453	CT	1	RAH	-0.366200
10	O98	-4.053	15.934	0.046	O	1	RAH	-0.567900
11	N99	-4.037	14.504	-1.605	N	1	RAH	-0.494849
12	H11	-4.479	14.125	-2.430	H	1	RAH	0.251553
13	H12	-2.045	14.764	-0.962	H1	1	RAH	0.033893
14	H13	-2.910	13.418	-0.195	H1	1	RAH	0.033893
15	H14	-2.031	13.517	-3.135	HC	1	RAH	0.004505
16	H15	-2.892	12.179	-2.367	HC	1	RAH	0.004505
17	H16	-0.097	13.181	-1.610	HC	1	RAH	-0.003845
18	H17	-0.951	11.890	-0.768	HC	1	RAH	-0.003845
19	H18	-0.253	11.844	-3.753	HC	1	RAH	-0.029628
20	H19	-1.070	10.568	-2.869	HC	1	RAH	-0.029628
21	H23	0.932	10.201	-1.470	HC	1	RAH	0.023628
22	H24	1.791	11.539	-2.341	HC	1	RAH	0.023628
23	H25	0.638	8.930	-3.507	H1	1	RAH	-0.021095
24	H26	1.522	10.164	-4.435	H1	1	RAH	-0.021095
25	H95	-6.678	15.903	-0.690	HC	1	RAH	0.112300
26	H96	-6.237	15.489	-2.341	HC	1	RAH	0.112300
27	H97	-5.823	17.069	-1.690	HC	1	RAH	0.112300
28	N1	5.134	0.481	-0.167	N.2	2	RAH	-0.761500
29	C2	6.356	1.001	-0.262	C.2	2	RAH	0.587500
30	N3	6.725	2.179	-0.716	N.2	2	RAH	-0.699700
31	C4	5.655	2.893	-1.121	C.2	2	RAH	0.305300
32	C5	4.348	2.496	-1.086	C.2	2	RAH	0.051500
33	C6	4.082	1.215	-0.578	C.2	2	RAH	0.700900
34	N6	2.849	0.697	-0.485	N.pl3	2	RAH	-0.901900
35	N7	3.524	3.496	-1.584	N.2	2	RAH	-0.607300
36	C8	4.345	4.449	-1.900	C.2	2	RAH	0.200600
37	N9	5.666	4.158	-1.647	N.pl3	2	RAH	-0.025100
38	H2	7.166	0.359	0.086	H	2	RAH	0.047300
39	H8	4.018	5.396	-2.328	H	2	RAH	0.155300
40	H61	2.718	-0.232	-0.111	H	2	RAH	0.411500
41	H62	2.051	1.236	-0.789	H	2	RAH	0.411500
42	P	3.265	7.893	-3.814	P	3	RAH	1.166200
43	O1P	2.374	6.703	-4.072	O2	3	RAH	-0.776000
44	O2P	2.864	9.230	-4.389	O2	3	RAH	-0.776000
45	C5'	5.597	8.127	-3.611	CT	3	RAH	-0.199861
46	O5'	4.549	7.569	-4.405	OS	3	RAH	-0.498900
47	C4'	6.568	7.011	-3.184	CT	3	RAH	-0.733448
48	O4'	6.000	5.994	-2.319	OS	3	RAH	0.603719
49	C3'	7.142	6.312	-4.426	CT	3	RAH	-0.201255
50	O3'	7.849	7.255	-5.236	OH	3	RAH	-0.259896
51	C2'	7.356	4.156	-3.113	CT	3	RAH	1.701141
52	O2'	8.259	3.119	-2.716	OH	3	RAH	-0.755060
53	C1'	6.782	4.856	-1.871	CT	3	RAH	0.039400
54	C16	9.903	4.443	-5.207	C	3	RAH	0.597200
55	C17	10.381	3.623	-6.421	CT	3	RAH	-0.366200
56	N98	7.983	5.169	-3.995	NT	3	RAH	-0.523549
57	O98	10.862	5.077	-4.357	O	3	RAH	-0.567900
58	N99	8.433	4.484	-5.192	N	3	RAH	-0.384531
59	HO2'	8.833	3.444	-2.019	HO	3	RAH	0.221777
60	HO3'	8.605	6.826	-5.641	HO	3	RAH	0.145309
61	H1'	7.619	5.257	-1.250	H2	3	RAH	0.200700
62	H2'	6.528	3.667	-3.680	H2	3	RAH	-0.214096
63	H3'	6.305	5.909	-5.047	H2	3	RAH	-0.508221
64	H4'	7.396	7.500	-2.617	H1	3	RAH	0.624556
65	H95	10.431	4.270	-7.297	HC	3	RAH	0.112300
66	H96	9.680	2.812	-6.611	HC	3	RAH	0.112300
67	H97	11.369	3.213	-6.216	HC	3	RAH	0.112300
68	H99	7.656	3.964	-5.879	H	3	RAH	0.107708
69	H5'1	5.171	8.598	-2.725	H1	3	RAH	0.226253
70	H5'2	6.135	8.874	-4.194	H1	3	RAH	0.226253
@<TRIPOS>BOND
1 1 2 1
2 2 3 1
3 2 23 1
4 2 24 1
5 3 4 1
6 3 21 1
7 3 22 1
8 4 5 1
9 4 19 1
10 4 20 1
11 5 6 1
12 5 17 1
13 5 18 1
14 6 7 1
15 6 15 1
16 6 16 1
17 7 11 1
18 7 13 1
19 7 14 1
20 8 9 1
21 8 10 2
22 8 11 1
23 9 25 1
24 9 26 1
25 9 27 1
26 11 12 1
27 28 29 1
28 28 33 2
29 29 30 2
30 29 38 1
31 30 31 1
32 31 32 2
33 31 37 1
34 32 33 1
35 32 35 1
36 33 34 1
37 34 40 1
38 34 41 1
39 35 36 2
40 36 37 1
41 36 39 1
42 42 43 1
43 42 44 1
44 42 46 1
45 45 46 1
46 45 47 1
47 45 69 1
48 45 70 1
49 47 48 1
50 47 49 1
51 47 64 1
52 48 53 1
53 49 50 1
54 49 56 1
55 49 63 1
56 50 60 1
57 51 52 1
58 51 53 1
59 51 56 1
60 51 62 1
61 52 59 1
62 37 53 1
63 53 61 1
64 54 55 1
65 54 57 2
66 54 58 1
67 55 65 1
68 55 66 1
69 55 67 1
70 56 58 1
71 58 68 1
72 1 42 1
@<TRIPOS>SUBSTRUCTURE
1 RAH 1 GROUP 1 **** RAH
2 RAH 28 GROUP 2 **** RAH
3 RAH 42 GROUP 3 **** RAH
