@<TRIPOS>MOLECULE
RCEE
58 61 2
SMALL
USER_CHARGES
@<TRIPOS>ATOM
1	C7	3.355	0.552	-0.446	CM	1	RCE	0.189113
2	C9	4.860	0.783	-0.410	CM	1	RCE	1.367265
3	C10	5.869	-0.263	0.055	CT	1	RCE	-2.540263
4	C11	5.309	-1.631	0.485	CV	1	RCE	1.233750
5	C12	6.161	-2.781	1.043	CA	1	RCE	-0.808708
6	C13	5.365	-5.202	1.834	CT	1	RCE	-0.431137
7	C14	4.041	-5.980	1.959	CT	1	RCE	0.184070
8	C15	4.325	-7.387	2.528	CT	1	RCE	-0.055126
9	C16	3.089	-9.335	3.174	C	1	RCE	0.597200
10	C17	1.795	-10.109	3.291	CT	1	RCE	-0.366200
11	N96	3.893	-2.006	0.414	NB	1	RCE	-0.513644
12	N97	3.874	-3.360	0.919	NB	1	RCE	-0.243707
13	N98	5.185	-3.848	1.298	N*	1	RCE	0.556410
14	O98	4.160	-9.819	3.568	O	1	RCE	-0.567900
15	N99	3.079	-8.153	2.655	N	1	RCE	-0.455448
16	H85	2.739	-0.286	-0.124	HA	1	RCE	-0.024457
17	H86	6.361	0.211	0.905	HC	1	RCE	0.656833
18	H87	6.591	-0.402	-0.750	HC	1	RCE	0.656833
19	H88	7.239	-2.801	1.212	H4	1	RCE	0.293321
20	H89	5.818	-5.130	2.820	H1	1	RCE	0.140487
21	H90	5.995	-5.746	1.132	H1	1	RCE	0.140487
22	H91	3.368	-5.446	2.630	HC	1	RCE	0.023414
23	H92	3.579	-6.073	0.977	HC	1	RCE	0.023414
24	H93	4.808	-7.294	3.505	H1	1	RCE	0.086977
25	H94	5.013	-7.920	1.855	H1	1	RCE	0.086977
26	H95	1.864	-11.031	2.738	HC	1	RCE	0.112300
27	H96	0.977	-9.522	2.899	HC	1	RCE	0.112300
28	H97	1.592	-10.335	4.330	HC	1	RCE	0.112300
29	H99	2.208	-7.752	2.336	H	1	RCE	0.279934
30	P	3.063	8.025	-4.135	P	2	RCE	1.166200
31	O1P	3.223	8.856	-5.350	O.2	2	RCE	-0.776000
32	O2P	1.891	7.121	-4.118	O	2	RCE	-0.776000
33	C5'	5.621	7.881	-3.587	C.3	2	RCE	0.055800
34	O5'	4.397	7.181	-3.881	O.3	2	RCE	-0.498900
35	C4'	6.718	6.889	-3.258	C.3	2	RCE	0.106500
36	O4'	6.486	6.363	-1.919	O.3	2	RCE	-0.354800
37	C3'	6.776	5.641	-4.140	C.3	2	RCE	0.202200
38	O3'	7.398	5.908	-5.390	O	2	RCE	-0.524600
39	C2'	7.566	4.726	-3.208	C.3	2	RCE	0.067000
40	O2'	8.949	5.085	-3.166	O.3	2	RCE	-0.613900
41	C1'	6.874	5.000	-1.877	C.3	2	RCE	0.006600
42	N1	5.666	4.158	-1.647	N.pl3	2	RCE	-0.048400
43	C2	5.853	2.891	-1.100	C.2	2	RCE	0.753800
44	O2	7.001	2.521	-0.831	O.2	2	RCE	-0.625200
45	N3	4.764	2.108	-0.883	N.2	2	RCE	-0.758400
46	C4	3.536	2.547	-1.188	C.2	2	RCE	0.818500
47	N4	2.508	1.746	-0.956	N.pl3	2	RCE	-0.953000
48	C5	3.323	3.847	-1.751	C.2	2	RCE	-0.521500
49	C6	4.423	4.613	-1.961	C.2	2	RCE	0.005300
50	HO'2	9.266	5.035	-2.261	H	2	RCE	0.418600
51	H5	2.324	4.204	-1.999	H	2	RCE	0.192800
52	H6	4.309	5.609	-2.388	H	2	RCE	0.195800
53	H1'	7.560	4.764	-1.063	H	2	RCE	0.202900
54	H3'	5.823	5.221	-4.460	H	2	RCE	0.061500
55	H4'	7.638	7.457	-3.394	H	2	RCE	0.117400
56	H2'1	7.570	3.677	-3.505	H	2	RCE	0.097200
57	H5'1	5.462	8.536	-2.730	H	2	RCE	0.067900
58	H5'2	5.916	8.473	-4.453	H	2	RCE	0.067900
@<TRIPOS>BOND
1 1 2 2
2 1 16 1
3 2 3 1
4 3 4 1
5 3 17 1
6 3 18 1
7 4 5 2
8 4 11 1
9 5 13 1
10 5 19 1
11 6 7 1
12 6 13 1
13 6 20 1
14 6 21 1
15 7 8 1
16 7 22 1
17 7 23 1
18 8 15 1
19 8 24 1
20 8 25 1
21 9 10 1
22 9 14 2
23 9 15 1
24 10 26 1
25 10 27 1
26 10 28 1
27 11 12 2
28 12 13 1
29 15 29 1
30 30 31 2
31 30 32 1
32 30 34 1
33 33 34 1
34 33 35 1
35 33 57 1
36 33 58 1
37 35 36 1
38 35 37 1
39 35 55 1
40 36 41 1
41 37 38 1
42 37 39 1
43 37 54 1
44 39 40 1
45 39 41 1
46 39 56 1
47 40 50 1
48 41 42 1
49 41 53 1
50 42 43 1
51 42 49 1
52 43 44 2
53 43 45 1
54 45 46 1
55 46 47 2
56 46 48 1
57 48 49 2
58 48 51 1
59 49 52 1
60 2 45 1
61 1 47 1
@<TRIPOS>SUBSTRUCTURE
1 RCE 1 GROUP 1 **** RCE
2 RCE 30 GROUP 1 **** RCE
