@<TRIPOS>MOLECULE
RCP
68 69 3
SMALL
USER_CHARGES
@<TRIPOS>ATOM
1	O01	2.659	9.073	-3.098	OS	1	RCH	-0.540583
2	C10	1.420	9.687	-3.461	CT	1	RCH	0.337936
3	C11	1.045	10.747	-2.407	CT	1	RCH	-0.058249
4	C12	-0.329	11.363	-2.782	CT	1	RCH	0.040732
5	C13	-0.822	12.385	-1.737	CT	1	RCH	0.007155
6	C14	-2.174	12.983	-2.191	CT	1	RCH	0.017920
7	C15	-2.756	13.954	-1.143	CT	1	RCH	0.115369
8	C16	-4.602	15.471	-0.962	C	1	RCH	0.597200
9	C17	-5.923	16.020	-1.453	CT	1	RCH	-0.366200
10	O98	-4.053	15.934	0.046	O	1	RCH	-0.567900
11	N99	-4.037	14.504	-1.605	N	1	RCH	-0.494849
12	H11	-4.479	14.125	-2.430	H	1	RCH	0.251553
13	H12	-2.045	14.764	-0.962	H1	1	RCH	0.033893
14	H13	-2.910	13.418	-0.195	H1	1	RCH	0.033893
15	H14	-2.031	13.517	-3.135	HC	1	RCH	0.004505
16	H15	-2.892	12.179	-2.367	HC	1	RCH	0.004505
17	H16	-0.097	13.181	-1.610	HC	1	RCH	-0.003845
18	H17	-0.951	11.890	-0.768	HC	1	RCH	-0.003845
19	H18	-0.253	11.844	-3.753	HC	1	RCH	-0.029628
20	H19	-1.070	10.568	-2.869	HC	1	RCH	-0.029628
21	H23	0.932	10.201	-1.470	HC	1	RCH	0.023628
22	H24	1.791	11.539	-2.341	HC	1	RCH	0.023628
23	H25	0.638	8.930	-3.507	H1	1	RCH	-0.021095
24	H26	1.522	10.164	-4.435	H1	1	RCH	-0.021095
25	H95	-6.678	15.903	-0.690	HC	1	RCH	0.112300
26	H96	-6.237	15.489	-2.341	HC	1	RCH	0.112300
27	H97	-5.823	17.069	-1.690	HC	1	RCH	0.112300
28	N1	5.666	4.158	-1.647	N.pl3	2	RCH	-0.048400
29	C2	5.853	2.891	-1.100	C.2	2	RCH	0.753800
30	O2	7.001	2.521	-0.831	O.2	2	RCH	-0.625200
31	N3	4.764	2.108	-0.883	N.2	2	RCH	-0.758400
32	C4	3.536	2.547	-1.188	C.2	2	RCH	0.818500
33	N4	2.508	1.746	-0.956	N.pl3	2	RCH	-0.953000
34	C5	3.323	3.847	-1.751	C.2	2	RCH	-0.521500
35	C6	4.423	4.613	-1.961	C.2	2	RCH	0.005300
36	H5	2.324	4.204	-1.999	H	2	RCH	0.192800
37	H6	4.309	5.609	-2.388	H	2	RCH	0.195800
38	H41	1.571	2.051	-1.176	H	2	RCH	0.423400
39	H42	2.661	0.830	-0.559	H	2	RCH	0.423400
40	P	3.265	7.893	-3.814	P	3	RCH	1.166200
41	O1P	2.374	6.703	-4.072	O2	3	RCH	-0.776000
42	O2P	2.864	9.230	-4.389	O2	3	RCH	-0.776000
43	C5'	5.597	8.127	-3.611	CT	3	RCH	-0.199553
44	O5'	4.549	7.569	-4.405	OS	3	RCH	-0.498900
45	C4'	6.568	7.011	-3.184	CT	3	RCH	-0.725373
46	O4'	6.000	5.994	-2.319	OS	3	RCH	0.578413
47	C3'	7.142	6.312	-4.426	CT	3	RCH	-0.198482
48	O3'	7.849	7.255	-5.236	OH	3	RCH	-0.250464
49	C2'	7.356	4.156	-3.113	CT	3	RCH	1.708383
50	O2'	8.259	3.119	-2.716	OH	3	RCH	-0.755545
51	C1'	6.782	4.856	-1.871	CT	3	RCH	0.006600
52	C16	9.903	4.443	-5.207	C	3	RCH	0.597200
53	C17	10.381	3.623	-6.421	CT	3	RCH	-0.366200
54	N98	7.983	5.169	-3.995	NT	3	RCH	-0.531474
55	O98	10.862	5.077	-4.357	O	3	RCH	-0.567900
56	N99	8.433	4.484	-5.192	N	3	RCH	-0.383963
57	HO2'	8.833	3.444	-2.019	HO	3	RCH	0.221678
58	HO3'	8.605	6.826	-5.641	HO	3	RCH	0.145185
59	H1'	7.619	5.257	-1.250	H2	3	RCH	0.202900
60	H2'	6.528	3.667	-3.680	H2	3	RCH	-0.206867
61	H3'	6.305	5.909	-5.047	H2	3	RCH	-0.504439
62	H4'	7.396	7.500	-2.617	H1	3	RCH	0.623823
63	H95	10.431	4.270	-7.297	HC	3	RCH	0.112300
64	H96	9.680	2.812	-6.611	HC	3	RCH	0.112300
65	H97	11.369	3.213	-6.216	HC	3	RCH	0.112300
66	H99	7.656	3.964	-5.879	H	3	RCH	0.106771
67	H5'1	5.171	8.598	-2.725	H1	3	RCH	0.224354
68	H5'2	6.135	8.874	-4.194	H1	3	RCH	0.224354
@<TRIPOS>BOND
1 1 2 1
2 2 3 1
3 2 23 1
4 2 24 1
5 3 4 1
6 3 21 1
7 3 22 1
8 4 5 1
9 4 19 1
10 4 20 1
11 5 6 1
12 5 17 1
13 5 18 1
14 6 7 1
15 6 15 1
16 6 16 1
17 7 11 1
18 7 13 1
19 7 14 1
20 8 9 1
21 8 10 2
22 8 11 1
23 9 25 1
24 9 26 1
25 9 27 1
26 11 12 1
27 28 29 1
28 28 35 1
29 29 30 2
30 29 31 1
31 31 32 2
32 32 33 1
33 32 34 1
34 33 38 1
35 33 39 1
36 34 35 2
37 34 36 1
38 35 37 1
39 40 41 1
40 40 42 1
41 40 44 1
42 43 44 1
43 43 45 1
44 43 67 1
45 43 68 1
46 45 46 1
47 45 47 1
48 45 62 1
49 46 51 1
50 47 48 1
51 47 54 1
52 47 61 1
53 48 58 1
54 49 50 1
55 49 51 1
56 49 54 1
57 49 60 1
58 50 57 1
59 28 51 1
60 51 59 1
61 52 53 1
62 52 55 2
63 52 56 1
64 53 63 1
65 53 64 1
66 53 65 1
67 54 56 1
68 56 66 1
69 1 40 1
@<TRIPOS>SUBSTRUCTURE
1 RCH 1 GROUP 1 **** RCH
2 RCH 28 GROUP 2 **** RCH
3 RCH 40 GROUP 3 **** RCH
