@<TRIPOS>MOLECULE
RCP
88 89 3
SMALL
USER_CHARGES
@<TRIPOS>ATOM
1	O01	2.659	9.073	-3.098	OS	1	RCO	-0.540583
2	C10	1.420	9.687	-3.461	CT	1	RCO	0.337936
3	C11	1.045	10.747	-2.407	CT	1	RCO	-0.058249
4	C12	-0.329	11.363	-2.782	CT	1	RCO	0.040732
5	C13	-0.822	12.385	-1.737	CT	1	RCO	0.007155
6	C14	-2.174	12.983	-2.191	CT	1	RCO	0.017920
7	C15	-2.756	13.954	-1.143	CT	1	RCO	0.115369
8	C16	-4.602	15.471	-0.962	C	1	RCO	0.597200
9	C17	-5.923	16.020	-1.453	CT	1	RCO	-0.366200
10	O98	-4.053	15.934	0.046	O	1	RCO	-0.567900
11	N99	-4.037	14.504	-1.605	N	1	RCO	-0.494849
12	H11	-4.479	14.125	-2.430	H	1	RCO	0.251553
13	H12	-2.045	14.764	-0.962	H1	1	RCO	0.033893
14	H13	-2.910	13.418	-0.195	H1	1	RCO	0.033893
15	H14	-2.031	13.517	-3.135	HC	1	RCO	0.004505
16	H15	-2.892	12.179	-2.367	HC	1	RCO	0.004505
17	H16	-0.097	13.181	-1.610	HC	1	RCO	-0.003845
18	H17	-0.951	11.890	-0.768	HC	1	RCO	-0.003845
19	H18	-0.253	11.844	-3.753	HC	1	RCO	-0.029628
20	H19	-1.070	10.568	-2.869	HC	1	RCO	-0.029628
21	H23	0.932	10.201	-1.470	HC	1	RCO	0.023628
22	H24	1.791	11.539	-2.341	HC	1	RCO	0.023628
23	H25	0.638	8.930	-3.507	H1	1	RCO	-0.021095
24	H26	1.522	10.164	-4.435	H1	1	RCO	-0.021095
25	H95	-6.678	15.903	-0.690	HC	1	RCO	0.112300
26	H96	-6.237	15.489	-2.341	HC	1	RCO	0.112300
27	H97	-5.823	17.069	-1.690	HC	1	RCO	0.112300
28	P	3.063	8.025	-4.135	P	2	RCO	1.166200
29	O1P	3.223	8.856	-5.350	O.2	2	RCO	-0.776000
30	O2P	1.891	7.121	-4.118	O	2	RCO	-0.776000
31	C5'	5.621	7.881	-3.587	C.3	2	RCO	0.055800
32	O5'	4.397	7.181	-3.881	O.3	2	RCO	-0.498900
33	C4'	6.718	6.889	-3.258	C.3	2	RCO	0.106500
34	O4'	6.486	6.363	-1.919	O.3	2	RCO	-0.354800
35	C3'	6.776	5.641	-4.140	C.3	2	RCO	0.202200
36	O3'	7.398	5.908	-5.390	O	2	RCO	-0.524600
37	C2'	7.566	4.726	-3.208	C.3	2	RCO	0.067000
38	O2'	8.949	5.085	-3.166	O.3	2	RCO	-0.613900
39	C1'	6.874	5.000	-1.877	C.3	2	RCO	0.006600
40	N1	5.666	4.158	-1.647	N.pl3	2	RCO	-0.048400
41	C2	5.853	2.891	-1.100	C.2	2	RCO	0.753800
42	O2	7.001	2.521	-0.831	O.2	2	RCO	-0.625200
43	N3	4.764	2.108	-0.883	N.2	2	RCO	-0.758400
44	C4	3.536	2.547	-1.188	C.2	2	RCO	0.818500
45	N4	2.508	1.746	-0.956	N.pl3	2	RCO	-0.953000
46	C5	3.323	3.847	-1.751	C.2	2	RCO	-0.521500
47	C6	4.423	4.613	-1.961	C.2	2	RCO	0.005300
48	HO'2	9.266	5.035	-2.261	H	2	RCO	0.418600
49	H5	2.324	4.204	-1.999	H	2	RCO	0.192800
50	H6	4.309	5.609	-2.388	H	2	RCO	0.195800
51	H1'	7.560	4.764	-1.063	H	2	RCO	0.202900
52	H3'	5.823	5.221	-4.460	H	2	RCO	0.061500
53	H4'	7.638	7.457	-3.394	H	2	RCO	0.117400
54	H41	1.571	2.051	-1.176	H	2	RCO	0.423400
55	H42	2.661	0.830	-0.559	H	2	RCO	0.423400
56	H2'1	7.570	3.677	-3.505	H	2	RCO	0.097200
57	H5'1	5.462	8.536	-2.730	H	2	RCO	0.067900
58	H5'2	5.916	8.473	-4.453	H	2	RCO	0.067900
59	P1	6.493	7.034	-6.104	P	3	RCO	1.166200
60	O3P	5.202	6.281	-6.321	O2	3	RCO	-0.776000
61	O4P	6.503	8.178	-5.121	O2	3	RCO	-0.776000
62	O01	6.845	7.605	-7.390	OS	3	RCO	-0.538625
63	C10	5.870	8.583	-7.761	CT	3	RCO	0.333640
64	C11	6.236	9.179	-9.134	CT	3	RCO	-0.048453
65	C12	5.203	10.279	-9.496	CT	3	RCO	0.034624
66	C13	5.536	10.986	-10.825	CT	3	RCO	0.008038
67	C14	4.450	12.041	-11.140	CT	3	RCO	0.019540
68	C15	4.774	12.837	-12.421	CT	3	RCO	0.113947
69	C16	3.708	14.474	-13.809	C	3	RCO	0.597200
70	C17	2.620	15.493	-14.065	CT	3	RCO	-0.366200
71	O98	4.584	14.249	-14.655	O	3	RCO	-0.567900
72	N99	3.724	13.828	-12.691	N	3	RCO	-0.494697
73	H11	3.010	14.005	-12.000	H	3	RCO	0.251527
74	H12	4.864	12.149	-13.265	H1	3	RCO	0.034246
75	H13	5.737	13.353	-12.296	H1	3	RCO	0.034246
76	H14	3.487	11.538	-11.264	HC	3	RCO	0.004303
77	H15	4.359	12.737	-10.303	HC	3	RCO	0.004303
78	H16	5.591	10.268	-11.637	HC	3	RCO	-0.004201
79	H17	6.510	11.481	-10.748	HC	3	RCO	-0.004201
80	H18	4.213	9.835	-9.557	HC	3	RCO	-0.028577
81	H19	5.176	11.025	-8.701	HC	3	RCO	-0.028577
82	H23	7.208	9.652	-8.997	HC	3	RCO	0.021994
83	H24	6.248	8.421	-9.918	HC	3	RCO	0.021994
84	H25	5.849	9.377	-7.015	H1	3	RCO	-0.020586
85	H26	4.888	8.114	-7.819	H1	3	RCO	-0.020586
86	H95	3.056	16.467	-14.228	HC	3	RCO	0.112300
87	H96	1.954	15.545	-13.216	HC	3	RCO	0.112300
88	H97	2.049	15.213	-14.939	HC	3	RCO	0.112300
@<TRIPOS>BOND
1 1 2 1
2 2 3 1
3 2 23 1
4 2 24 1
5 3 4 1
6 3 21 1
7 3 22 1
8 4 5 1
9 4 19 1
10 4 20 1
11 5 6 1
12 5 17 1
13 5 18 1
14 6 7 1
15 6 15 1
16 6 16 1
17 7 11 1
18 7 13 1
19 7 14 1
20 8 9 1
21 8 10 2
22 8 11 1
23 9 25 1
24 9 26 1
25 9 27 1
26 11 12 1
27 28 29 2
28 28 30 1
29 28 32 1
30 31 32 1
31 31 33 1
32 31 57 1
33 31 58 1
34 33 34 1
35 33 35 1
36 33 53 1
37 34 39 1
38 35 36 1
39 35 37 1
40 35 52 1
41 37 38 1
42 37 39 1
43 37 56 1
44 38 48 1
45 39 40 1
46 39 51 1
47 40 41 1
48 40 47 1
49 41 42 2
50 41 43 1
51 43 44 2
52 44 45 1
53 44 46 1
54 45 54 1
55 45 55 1
56 46 47 2
57 46 49 1
58 47 50 1
59 36 59 1
60 59 60 1
61 59 61 1
62 59 62 1
63 62 63 1
64 63 64 1
65 63 84 1
66 63 85 1
67 64 65 1
68 64 82 1
69 64 83 1
70 65 66 1
71 65 80 1
72 65 81 1
73 66 67 1
74 66 78 1
75 66 79 1
76 67 68 1
77 67 76 1
78 67 77 1
79 68 72 1
80 68 74 1
81 68 75 1
82 69 70 1
83 69 71 2
84 69 72 1
85 70 86 1
86 70 87 1
87 70 88 1
88 72 73 1
89 1 28 1
@<TRIPOS>SUBSTRUCTURE
1 RCO 1 GROUP 1 **** RCO
2 RCO 28 GROUP 2 **** RCO
3 RCO 59 GROUP 3 **** RCO
