@<TRIPOS>MOLECULE
RGP
71 73 3
SMALL
USER_CHARGES
@<TRIPOS>ATOM
1	O01	2.659	9.073	-3.098	OS	1	RGH	-0.540583
2	C10	1.420	9.687	-3.461	CT	1	RGH	0.337936
3	C11	1.045	10.747	-2.407	CT	1	RGH	-0.058249
4	C12	-0.329	11.363	-2.782	CT	1	RGH	0.040732
5	C13	-0.822	12.385	-1.737	CT	1	RGH	0.007155
6	C14	-2.174	12.983	-2.191	CT	1	RGH	0.017920
7	C15	-2.756	13.954	-1.143	CT	1	RGH	0.115369
8	C16	-4.602	15.471	-0.962	C	1	RGH	0.597200
9	C17	-5.923	16.020	-1.453	CT	1	RGH	-0.366200
10	O98	-4.053	15.934	0.046	O	1	RGH	-0.567900
11	N99	-4.037	14.504	-1.605	N	1	RGH	-0.494849
12	H11	-4.479	14.125	-2.430	H	1	RGH	0.251553
13	H12	-2.045	14.764	-0.962	H1	1	RGH	0.033893
14	H13	-2.910	13.418	-0.195	H1	1	RGH	0.033893
15	H14	-2.031	13.517	-3.135	HC	1	RGH	0.004505
16	H15	-2.892	12.179	-2.367	HC	1	RGH	0.004505
17	H16	-0.097	13.181	-1.610	HC	1	RGH	-0.003845
18	H17	-0.951	11.890	-0.768	HC	1	RGH	-0.003845
19	H18	-0.253	11.844	-3.753	HC	1	RGH	-0.029628
20	H19	-1.070	10.568	-2.869	HC	1	RGH	-0.029628
21	H23	0.932	10.201	-1.470	HC	1	RGH	0.023628
22	H24	1.791	11.539	-2.341	HC	1	RGH	0.023628
23	H25	0.638	8.930	-3.507	H1	1	RGH	-0.021095
24	H26	1.522	10.164	-4.435	H1	1	RGH	-0.021095
25	H95	-6.678	15.903	-0.690	HC	1	RGH	0.112300
26	H96	-6.237	15.489	-2.341	HC	1	RGH	0.112300
27	H97	-5.823	17.069	-1.690	HC	1	RGH	0.112300
28	N1	5.185	0.505	-0.172	N.pl3	2	RGH	-0.478700
29	C2	6.474	0.995	-0.248	C.2	2	RGH	0.765700
30	N2	7.438	0.180	0.188	N.pl3	2	RGH	-0.967200
31	N3	6.771	2.203	-0.722	N.2	2	RGH	-0.632300
32	C4	5.664	2.886	-1.117	C.2	2	RGH	0.122200
33	C5	4.351	2.483	-1.079	C.2	2	RGH	0.174400
34	C6	4.033	1.195	-0.574	C.2	2	RGH	0.477000
35	O6	2.932	0.661	-0.462	O.2	2	RGH	-0.559700
36	N7	3.516	3.480	-1.579	N.2	2	RGH	-0.570900
37	C8	4.342	4.447	-1.899	C.2	2	RGH	0.137400
38	N9	5.666	4.158	-1.647	N.pl3	2	RGH	0.049200
39	H1	5.063	-0.425	0.203	H	2	RGH	0.342400
40	H8	4.011	5.394	-2.326	H	2	RGH	0.164000
41	H21	8.403	0.478	0.160	H	2	RGH	0.436400
42	H22	7.203	-0.735	0.546	H	2	RGH	0.436400
43	P	3.265	7.893	-3.814	P	3	RGH	1.166200
44	O1P	2.374	6.703	-4.072	O2	3	RGH	-0.776000
45	O2P	2.864	9.230	-4.389	O2	3	RGH	-0.776000
46	C5'	5.597	8.127	-3.611	CT	3	RGH	-0.199851
47	O5'	4.549	7.569	-4.405	OS	3	RGH	-0.498900
48	C4'	6.568	7.011	-3.184	CT	3	RGH	-0.727780
49	O4'	6.000	5.994	-2.319	OS	3	RGH	0.586862
50	C3'	7.142	6.312	-4.426	CT	3	RGH	-0.198891
51	O3'	7.849	7.255	-5.236	OH	3	RGH	-0.253731
52	C2'	7.356	4.156	-3.113	CT	3	RGH	1.702637
53	O2'	8.259	3.119	-2.716	OH	3	RGH	-0.755413
54	C1'	6.782	4.856	-1.871	CT	3	RGH	0.019100
55	C16	9.903	4.443	-5.207	C	3	RGH	0.597200
56	C17	10.381	3.623	-6.421	CT	3	RGH	-0.366200
57	N98	7.983	5.169	-3.995	NT	3	RGH	-0.526546
58	O98	10.862	5.077	-4.357	O	3	RGH	-0.567900
59	N99	8.433	4.484	-5.192	N	3	RGH	-0.384315
60	HO2'	8.833	3.444	-2.019	HO	3	RGH	0.221714
61	HO3'	8.605	6.826	-5.641	HO	3	RGH	0.145243
62	H1'	7.619	5.257	-1.250	H2	3	RGH	0.200600
63	H2'	6.528	3.667	-3.680	H2	3	RGH	-0.209079
64	H3'	6.305	5.909	-5.047	H2	3	RGH	-0.504673
65	H4'	7.396	7.500	-2.617	H1	3	RGH	0.623772
66	H95	10.431	4.270	-7.297	HC	3	RGH	0.112300
67	H96	9.680	2.812	-6.611	HC	3	RGH	0.112300
68	H97	11.369	3.213	-6.216	HC	3	RGH	0.112300
69	H99	7.656	3.964	-5.879	H	3	RGH	0.107129
70	H5'1	5.171	8.598	-2.725	H1	3	RGH	0.224861
71	H5'2	6.135	8.874	-4.194	H1	3	RGH	0.224861
@<TRIPOS>BOND
1 1 2 1
2 2 3 1
3 2 23 1
4 2 24 1
5 3 4 1
6 3 21 1
7 3 22 1
8 4 5 1
9 4 19 1
10 4 20 1
11 5 6 1
12 5 17 1
13 5 18 1
14 6 7 1
15 6 15 1
16 6 16 1
17 7 11 1
18 7 13 1
19 7 14 1
20 8 9 1
21 8 10 2
22 8 11 1
23 9 25 1
24 9 26 1
25 9 27 1
26 11 12 1
27 28 29 1
28 28 34 1
29 28 39 1
30 29 30 1
31 29 31 2
32 30 41 1
33 30 42 1
34 31 32 1
35 32 33 2
36 32 38 1
37 33 34 1
38 33 36 1
39 34 35 2
40 36 37 2
41 37 38 1
42 37 40 1
43 43 44 1
44 43 45 1
45 43 47 1
46 46 47 1
47 46 48 1
48 46 70 1
49 46 71 1
50 48 49 1
51 48 50 1
52 48 65 1
53 49 54 1
54 50 51 1
55 50 57 1
56 50 64 1
57 51 61 1
58 52 53 1
59 52 54 1
60 52 57 1
61 52 63 1
62 53 60 1
63 38 54 1
64 54 62 1
65 55 56 1
66 55 58 2
67 55 59 1
68 56 66 1
69 56 67 1
70 56 68 1
71 57 59 1
72 59 69 1
73 1 43 1
@<TRIPOS>SUBSTRUCTURE
1 RGH 1 GROUP 1 **** RGH
2 RGH 28 GROUP 2 **** RGH
3 RGH 43 GROUP 3 **** RGH
