@<TRIPOS>MOLECULE
RUM
63 64 2
SMALL
USER_CHARGES
@<TRIPOS>ATOM
1	C8	23.683	50.733	22.493	CD	1	RUM	0.172975
2	C9	22.301	51.305	22.125	C	1	RUM	0.625923
3	C10	19.916	51.542	21.979	CT	1	RUM	0.299394
4	C11	18.566	50.947	22.424	CT	1	RUM	-0.065431
5	C12	17.420	51.835	21.870	CT	1	RUM	-0.043624
6	C13	16.024	51.270	22.203	CT	1	RUM	0.040815
7	C14	14.934	52.220	21.655	CT	1	RUM	0.048821
8	C15	13.514	51.664	21.890	CT	1	RUM	0.052255
9	C16	11.252	52.403	21.610	C	1	RUM	0.597200
10	C17	10.228	53.366	21.050	CT	1	RUM	-0.366200
11	N98	21.010	50.679	22.448	N	1	RUM	-0.836973
12	O98	10.907	51.439	22.307	O	1	RUM	-0.567900
13	N99	12.504	52.590	21.359	N	1	RUM	-0.480660
14	O99	22.074	52.525	21.415	O	1	RUM	-0.554093
15	H11	12.790	53.376	20.794	H	1	RUM	0.274148
16	H12	13.355	51.511	22.959	H1	1	RUM	0.046877
17	H13	13.416	50.691	21.387	H1	1	RUM	0.046877
18	H14	15.025	53.192	22.148	HC	1	RUM	0.012212
19	H15	15.083	52.372	20.584	HC	1	RUM	0.012212
20	H16	15.903	51.159	23.276	HC	1	RUM	-0.011427
21	H17	15.906	50.281	21.748	HC	1	RUM	-0.011427
22	H18	17.514	52.837	22.278	HC	1	RUM	-0.004872
23	H19	17.514	51.914	20.787	HC	1	RUM	-0.004872
24	H23	18.506	49.970	21.945	HC	1	RUM	0.036905
25	H24	18.485	50.885	23.509	HC	1	RUM	0.036905
26	H25	19.944	51.605	20.892	H1	1	RUM	0.024454
27	H26	20.031	52.539	22.403	H1	1	RUM	0.024454
28	H71	23.793	49.772	22.995	HA	1	RUM	0.017448
29	H95	9.535	52.839	20.411	HC	1	RUM	0.112300
30	H96	10.721	54.136	20.474	HC	1	RUM	0.112300
31	H97	9.678	53.831	21.856	HC	1	RUM	0.112300
32	H98	20.893	49.794	22.919	H	1	RUM	0.394703
33	P	26.752	54.767	20.003	P	2	RUM	1.166200
34	O1P	27.073	55.499	18.757	O.2	2	RUM	-0.776000
35	O2P	25.428	54.106	20.042	O	2	RUM	-0.776000
36	C5'	29.231	54.160	20.588	C.3	2	RUM	0.055800
37	O5'	27.897	53.695	20.309	O.3	2	RUM	-0.498900
38	C4'	30.118	52.992	20.973	C.3	2	RUM	0.106500
39	O4'	29.782	52.579	22.330	O.3	2	RUM	-0.354800
40	C3'	29.938	51.720	20.143	C.3	2	RUM	0.202200
41	O3'	30.604	51.807	18.892	O	2	RUM	-0.524600
42	C2'	30.534	50.709	21.123	C.3	2	RUM	0.067000
43	O2'	31.939	50.630	21.273	O.3	2	RUM	-0.613900
44	C1'	29.901	51.168	22.433	C.3	2	RUM	0.063400
45	N1	28.554	50.584	22.682	N.pl3	2	RUM	-0.023900
46	C2	28.509	49.346	23.275	C.2	2	RUM	0.567700
47	O2	29.509	48.727	23.596	O.2	2	RUM	-0.588100
48	N3	27.243	48.837	23.492	N.pl3	2	RUM	-0.434000
49	C4	26.048	49.448	23.170	C.2	2	RUM	0.519400
50	O4	24.975	48.893	23.412	O.2	2	RUM	-0.556300
51	C5	26.198	50.745	22.552	C.2	2	RUM	0.002500
52	C6	27.417	51.264	22.330	C.2	2	RUM	-0.220900
53	C7	24.945	51.542	22.141	C.3	2	RUM	-0.226900
54	HO'2	32.155	49.942	21.908	H	2	RUM	0.418600
55	H3	27.186	47.927	23.927	H	2	RUM	0.342000
56	H6	27.503	52.245	21.862	H	2	RUM	0.260700
57	H1'	30.524	50.840	23.265	H	2	RUM	0.179400
58	H3'	28.923	51.477	19.829	H	2	RUM	0.061500
59	H4'	31.131	53.365	20.825	H	2	RUM	0.117400
60	H73	24.878	52.532	21.692	H	2	RUM	0.077000
61	H2'1	30.326	49.702	20.763	H	2	RUM	0.097200
62	H5'1	29.197	54.870	21.416	H	2	RUM	0.067900
63	H5'2	29.639	54.647	19.703	H	2	RUM	0.067900
@<TRIPOS>BOND
1 1 2 1
2 1 28 1
3 1 53 1
4 2 11 1
5 2 14 2
6 3 4 1
7 3 11 1
8 3 26 1
9 3 27 1
10 4 5 1
11 4 24 1
12 4 25 1
13 5 6 1
14 5 22 1
15 5 23 1
16 6 7 1
17 6 20 1
18 6 21 1
19 7 8 1
20 7 18 1
21 7 19 1
22 8 13 1
23 8 16 1
24 8 17 1
25 9 10 1
26 9 12 2
27 9 13 1
28 10 29 1
29 10 30 1
30 10 31 1
31 11 32 1
32 13 15 1
33 33 34 2
34 33 35 1
35 33 37 1
36 36 37 1
37 36 38 1
38 36 62 1
39 36 63 1
40 38 39 1
41 38 40 1
42 38 59 1
43 39 44 1
44 40 41 1
45 40 42 1
46 40 58 1
47 42 43 1
48 42 44 1
49 42 61 1
50 43 54 1
51 44 45 1
52 44 57 1
53 45 46 1
54 45 52 1
55 46 47 2
56 46 48 1
57 48 49 1
58 48 55 1
59 49 50 2
60 49 51 1
61 51 52 2
62 51 53 1
63 52 56 1
64 53 60 1
@<TRIPOS>SUBSTRUMCTURE
1 RUM 1 GROUP 1 **** RUM
2 RUM 33 GROUP 1 **** RUM
