@<TRIPOS>MOLECULE
RUP
67 68 3
SMALL
USER_CHARGES
@<TRIPOS>ATOM
1	O01	2.659	9.073	-3.098	OS	1	RUH	-0.540583
2	C10	1.420	9.687	-3.461	CT	1	RUH	0.337936
3	C11	1.045	10.747	-2.407	CT	1	RUH	-0.058249
4	C12	-0.329	11.363	-2.782	CT	1	RUH	0.040732
5	C13	-0.822	12.385	-1.737	CT	1	RUH	0.007155
6	C14	-2.174	12.983	-2.191	CT	1	RUH	0.017920
7	C15	-2.756	13.954	-1.143	CT	1	RUH	0.115369
8	C16	-4.602	15.471	-0.962	C	1	RUH	0.597200
9	C17	-5.923	16.020	-1.453	CT	1	RUH	-0.366200
10	O98	-4.053	15.934	0.046	O	1	RUH	-0.567900
11	N99	-4.037	14.504	-1.605	N	1	RUH	-0.494849
12	H11	-4.479	14.125	-2.430	H	1	RUH	0.251553
13	H12	-2.045	14.764	-0.962	H1	1	RUH	0.033893
14	H13	-2.910	13.418	-0.195	H1	1	RUH	0.033893
15	H14	-2.031	13.517	-3.135	HC	1	RUH	0.004505
16	H15	-2.892	12.179	-2.367	HC	1	RUH	0.004505
17	H16	-0.097	13.181	-1.610	HC	1	RUH	-0.003845
18	H17	-0.951	11.890	-0.768	HC	1	RUH	-0.003845
19	H18	-0.253	11.844	-3.753	HC	1	RUH	-0.029628
20	H19	-1.070	10.568	-2.869	HC	1	RUH	-0.029628
21	H23	0.932	10.201	-1.470	HC	1	RUH	0.023628
22	H24	1.791	11.539	-2.341	HC	1	RUH	0.023628
23	H25	0.638	8.930	-3.507	H1	1	RUH	-0.021095
24	H26	1.522	10.164	-4.435	H1	1	RUH	-0.021095
25	H95	-6.678	15.903	-0.690	HC	1	RUH	0.112300
26	H96	-6.237	15.489	-2.341	HC	1	RUH	0.112300
27	H97	-5.823	17.069	-1.690	HC	1	RUH	0.112300
28	N1	5.666	4.158	-1.647	N.pl3	2	RUH	0.041800
29	C2	5.867	2.911	-1.107	C.2	2	RUH	0.468700
30	O2	6.971	2.482	-0.819	O.2	2	RUH	-0.547700
31	N3	4.725	2.160	-0.908	N.pl3	2	RUH	-0.354900
32	C4	3.431	2.543	-1.197	C.2	2	RUH	0.595200
33	O4	2.487	1.783	-0.974	O.2	2	RUH	-0.576100
34	C5	3.322	3.869	-1.760	C.2	2	RUH	-0.363500
35	C6	4.416	4.621	-1.964	C.2	2	RUH	-0.112600
36	H3	4.849	1.239	-0.512	H	2	RUH	0.315400
37	H5	2.340	4.264	-2.022	H	2	RUH	0.181100
38	H6	4.307	5.618	-2.390	H	2	RUH	0.218800
39	P	3.265	7.893	-3.814	P	3	RUH	1.166200
40	O1P	2.374	6.703	-4.072	O2	3	RUH	-0.776000
41	O2P	2.865	9.230	-4.389	O2	3	RUH	-0.776000
42	C5'	5.597	8.127	-3.611	CT	3	RUH	-0.202131
43	O5'	4.549	7.569	-4.405	OS	3	RUH	-0.498900
44	C4'	6.568	7.011	-3.184	CT	3	RUH	-0.732815
45	O4'	6.000	5.994	-2.319	OS	3	RUH	0.611900
46	C3'	7.142	6.312	-4.426	CT	3	RUH	-0.196350
47	O3'	7.849	7.255	-5.236	OH	3	RUH	-0.264268
48	C2'	7.356	4.157	-3.113	CT	3	RUH	1.661407
49	O2'	8.259	3.119	-2.716	OH	3	RUH	-0.755233
50	C1'	6.782	4.857	-1.870	CT	3	RUH	0.067400
51	C16	9.903	4.443	-5.207	C	3	RUH	0.597200
52	C17	10.381	3.623	-6.421	CT	3	RUH	-0.366200
53	N98	7.983	5.169	-3.995	NT	3	RUH	-0.495351
54	O98	10.862	5.077	-4.357	O	3	RUH	-0.567900
55	N99	8.434	4.484	-5.192	N	3	RUH	-0.386540
56	HO2'	8.833	3.445	-2.019	HO	3	RUH	0.221842
57	HO3'	8.605	6.826	-5.641	HO	3	RUH	0.145530
58	H1'	7.619	5.257	-1.249	H2	3	RUH	0.182400
59	H2'	6.528	3.667	-3.680	H2	3	RUH	-0.214173
60	H3'	6.305	5.909	-5.047	H2	3	RUH	-0.497877
61	H4'	7.396	7.500	-2.617	H1	3	RUH	0.621470
62	H95	10.431	4.270	-7.297	HC	3	RUH	0.112300
63	H96	9.680	2.812	-6.610	HC	3	RUH	0.112300
64	H97	11.369	3.213	-6.216	HC	3	RUH	0.112300
65	H99	7.656	3.964	-5.879	H	3	RUH	0.108522
66	H5'1	5.172	8.598	-2.725	H1	3	RUH	0.225433
67	H5'2	6.136	8.874	-4.194	H1	3	RUH	0.225433
@<TRIPOS>BOND
1 1 2 1
2 2 3 1
3 2 23 1
4 2 24 1
5 3 4 1
6 3 21 1
7 3 22 1
8 4 5 1
9 4 19 1
10 4 20 1
11 5 6 1
12 5 17 1
13 5 18 1
14 6 7 1
15 6 15 1
16 6 16 1
17 7 11 1
18 7 13 1
19 7 14 1
20 8 9 1
21 8 10 2
22 8 11 1
23 9 25 1
24 9 26 1
25 9 27 1
26 11 12 1
27 28 29 1
28 28 35 1
29 29 30 2
30 29 31 1
31 31 32 1
32 31 36 1
33 32 33 2
34 32 34 1
35 34 35 2
36 34 37 1
37 35 38 1
38 39 40 1
39 39 41 1
40 39 43 1
41 42 43 1
42 42 44 1
43 42 66 1
44 42 67 1
45 44 45 1
46 44 46 1
47 44 61 1
48 45 50 1
49 46 47 1
50 46 53 1
51 46 60 1
52 47 57 1
53 48 49 1
54 48 50 1
55 48 53 1
56 48 59 1
57 49 56 1
58 28 50 1
59 50 58 1
60 51 52 1
61 51 54 2
62 51 55 1
63 52 62 1
64 52 63 1
65 52 64 1
66 53 55 1
67 55 65 1
68 1 39 1
@<TRIPOS>SUBSTRUCTURE
1 RUH 1 GROUP 1 **** RUH
2 RUH 28 GROUP 2 **** RUH
3 RUH 39 GROUP 3 **** RUH
