# created with PyMOL 2.3.3
@<TRIPOS>MOLECULE
HYD
37 37 1                 
SMALL
USER_CHARGES
@<TRIPOS>ATOM
1	   P	-0.294	9.299	0.580	P.3	1	HYD1	0.000	
2	 C5'	1.710	8.660	1.635	C.3	1	HYD1	0.000	
3	 O5'	1.140	9.152	0.421	Os	1	HYD1	0.000	
4	 C4'	2.491	7.365	1.348	C.3	1	HYD1	0.000	
5	 O4'	1.690	6.250	0.879	Os	1	HYD1	0.000	
6	 C2'	3.389	5.247	-0.518	C.3	1	HYD1	0.000	
7	 C1'	2.293	4.978	0.526	C.3	1	HYD1	0.000	
8	 C01	-2.461	8.808	1.469	C.3	1	HYD1	0.000	
9	 O01	-1.115	8.351	1.609	Os	1	HYD1	0.000	
10	 C16	6.552	6.212	-0.650	C.2	1	HYD1	0.000	
11	 C17	7.558	6.410	-1.800	C.3	1	HYD1	0.000	
12	 O98	7.012	5.754	0.624	O.2	1	HYD1	0.000	
13	 N99	5.215	6.635	-1.091	N.pl3	1	HYD1	0.000	
14	 N97	1.307	4.035	-0.022	Du	1	HYD1	0.000	
15	 N98	4.251	6.355	-0.044	Du	1	HYD1	0.000	
16	 O1P	-0.900	8.958	-0.759	Du	1	HYD1	0.000	
17	 O2'	4.116	4.043	-0.785	Du	1	HYD1	0.000	
18	 O2P	-0.514	10.684	1.138	Du	1	HYD1	0.000	
19	 O3'	3.587	7.634	0.305	C.3	1	HYD1	0.000	
20	 O3'	4.496	8.624	0.793	Du	1	HYD1	0.000	
21	HO2'	4.316	3.600	0.043	Ho	1	HYD1	0.000	
22	HO3'	5.382	8.424	0.487	Ho	1	HYD1	0.000	
23	 H01	-2.511	9.873	1.701	 H	1	HYD1	0.000	
24	 H1'	2.757	4.565	1.454	 H	1	HYD1	0.000	
25	 H02	-3.107	8.257	2.155	 H	1	HYD1	0.000	
26	 H03	-2.797	8.643	0.446	 H	1	HYD1	0.000	
27	 H2'	2.917	5.561	-1.480	 H	1	HYD1	0.000	
28	 H3'	3.123	8.046	-0.625	 H	1	HYD1	0.000	
29	 H4'	2.963	7.050	2.309	 H	1	HYD1	0.000	
30	 H93	0.600	4.544	-0.532	 H	1	HYD1	0.000	
31	 H94	1.769	3.386	-0.643	 H	1	HYD1	0.000	
32	 H95	7.924	7.437	-1.788	 H	1	HYD1	0.000	
33	 H96	7.066	6.213	-2.751	 H	1	HYD1	0.000	
34	 H97	8.395	5.725	-1.672	 H	1	HYD1	0.000	
35	 H99	4.842	7.001	-2.127	 H	1	HYD1	0.000	
36	H5'1	0.916	8.455	2.353	 H	1	HYD1	0.000	
37	H5'2	2.386	9.409	2.048	 H	1	HYD1	0.000	
@<TRIPOS>BOND
1 1 3 1
2 1 9 1
3 1 16 1
4 1 18 1
5 2 3 1
6 2 4 1
7 2 36 1
8 2 37 1
9 4 5 1
10 4 19 1
11 4 29 1
12 5 7 1
13 6 7 1
14 6 15 1
15 6 17 1
16 6 27 1
17 7 14 1
18 7 24 1
19 8 9 1
20 8 23 1
21 8 25 1
22 8 26 1
23 10 11 1
24 10 12 2
25 10 13 1
26 11 32 1
27 11 33 1
28 11 34 1
29 13 15 1
30 13 35 1
31 14 30 1
32 14 31 1
33 17 21 1
34 15 19 1
35 19 20 1
36 19 28 1
37 20 22 1
@<TRIPOS>SUBSTRUCTURE
1	HYD1	1	GROUP	1 ****	HYD
