@<TRIPOS>MOLECULE
MLE
   35    34     1     0     0
SMALL
rc


@<TRIPOS>ATOM
      1 C7          24.8750    51.5710    22.1530 CM         1 MLE      -0.772512
      2 C8          24.4750    51.0800    20.7490 CD         1 MLE       0.172975
      3 C9          23.0240    51.3620    20.3180 C          1 MLE       0.625923
      4 C10         21.0050    51.3430    19.0180 CT         1 MLE       0.299394
      5 C11         20.3370    50.7880    17.7450 CT         1 MLE      -0.065431
      6 C12         18.8660    51.2800    17.6950 CT         1 MLE      -0.043624
      7 C13         18.1390    50.8340    16.4100 CT         1 MLE       0.040815
      8 C14         16.6730    51.3260    16.4440 CT         1 MLE       0.048821
      9 C15         15.9180    50.9770    15.1450 CT         1 MLE       0.052255
     10 C16         13.6780    51.1120    14.3050 C          1 MLE       0.597200
     11 C17         12.2560    51.6210    14.3890 CT         1 MLE      -0.366200
     12 N98         22.4160    50.9320    19.0490 N          1 MLE      -0.836973
     13 O98         14.0360    50.3690    13.3820 O          1 MLE      -0.567900
     14 N99         14.5310    51.4570    15.2100 N          1 MLE      -0.480660
     15 O99         22.0590    52.0850    21.0870 O          1 MLE      -0.554093
     16 H01         24.8450    52.6350    22.3870 HA         1 MLE       0.309256
     17 H02         25.1880    50.8540    22.9120 HA         1 MLE       0.309256
     18 H11         14.2430    52.0600    15.9670 H          1 MLE       0.274148
     19 H12         15.9320    49.8950    14.9950 H1         1 MLE       0.046877
     20 H13         16.4260    51.4470    14.2900 H1         1 MLE       0.046877
     21 H14         16.1600    50.8660    17.2930 HC         1 MLE       0.012212
     22 H15         16.6520    52.4090    16.5870 HC         1 MLE       0.012212
     23 H16         18.1570    49.7530    16.3170 HC         1 MLE      -0.011427
     24 H17         18.6430    51.2550    15.5340 HC         1 MLE      -0.011427
     25 H18         18.3330    50.9050    18.5640 HC         1 MLE      -0.004872
     26 H19         18.8470    52.3690    17.7460 HC         1 MLE      -0.004872
     27 H23         20.8780    51.2370    16.9120 HC         1 MLE       0.036905
     28 H24         20.3560    49.6990    17.7160 HC         1 MLE       0.036905
     29 H25         20.9440    52.4310    19.0150 H1         1 MLE       0.024454
     30 H26         20.4920    50.9530    19.8970 H1         1 MLE       0.024454
     31 H71         25.1790    50.5630    20.0970 HA         1 MLE       0.017448
     32 H95         12.0160    52.1960    13.5070 HC         1 MLE       0.112300
     33 H96         12.1390    52.2500    15.2600 HC         1 MLE       0.112300
     34 H97         11.5690    50.7900    14.4640 HC         1 MLE       0.112300
     35 H98         22.8940    50.4320    18.3140 H          1 MLE       0.394703
@<TRIPOS>BOND
     1     1     2 2   
     2     1    16 1   
     3     1    17 1   
     4     2     3 1   
     5     2    31 1   
     6     3    12 1   
     7     3    15 2   
     8     4     5 1   
     9     4    12 1   
    10     4    29 1   
    11     4    30 1   
    12     5     6 1   
    13     5    27 1   
    14     5    28 1   
    15     6     7 1   
    16     6    25 1   
    17     6    26 1   
    18     7     8 1   
    19     7    23 1   
    20     7    24 1   
    21     8     9 1   
    22     8    21 1   
    23     8    22 1   
    24     9    14 1   
    25     9    19 1   
    26     9    20 1   
    27    10    11 1   
    28    10    13 2   
    29    10    14 1   
    30    11    32 1   
    31    11    33 1   
    32    11    34 1   
    33    12    35 1   
    34    14    18 1   
@<TRIPOS>SUBSTRUCTURE
     1 MLE         1 TEMP              0 ****  ****    0 ROOT
