@<TRIPOS>MOLECULE
cytidine
31 32 1                 
SMALL
USER_CHARGES
@<TRIPOS>ATOM
  1     P  3.063  8.025 -4.135      P  1  RC1  1.1662
  2   O1P  3.223  8.856 -5.350    O.2  1  RC1 -0.7760
  3   O2P  1.891  7.121 -4.118      O  1  RC1 -0.7760
  4   C5'  5.621  7.881 -3.587    C.3  1  RC1  0.0558
  5   O5'  4.397  7.181 -3.881    O.3  1  RC1 -0.4989
  6   C4'  6.718  6.889 -3.258    C.3  1  RC1  0.1065
  7   O4'  6.486  6.363 -1.919    O.3  1  RC1 -0.3548
  8   C3'  6.776  5.641 -4.140    C.3  1  RC1  0.2022
  9   O3'  7.398  5.908 -5.390      O  1  RC1 -0.5246
 10   C2'  7.566  4.726 -3.208    C.3  1  RC1  0.0670
 11   O2'  8.949  5.085 -3.166    O.3  1  RC1 -0.6139
 12   C1'  6.874  5.000 -1.877    C.3  1  RC1  0.0066
 13    N1  5.666  4.158 -1.647  N.pl3  1  RC1 -0.0484
 14    C2  5.853  2.891 -1.100    C.2  1  RC1  0.7538
 15    O2  7.001  2.521 -0.831    O.2  1  RC1 -0.6252
 16    N3  4.764  2.108 -0.883    N.2  1  RC1 -0.7584
 17    C4  3.536  2.547 -1.188    C.2  1  RC1  0.8185
 18    N4  2.508  1.746 -0.956  N.pl3  1  RC1 -0.9530
 19    C5  3.323  3.847 -1.751    C.2  1  RC1 -0.5215
 20    C6  4.423  4.613 -1.961    C.2  1  RC1  0.0053
 21  HO'2  9.266  5.035 -2.261      H  1  RC1  0.4186
 22    H5  2.324  4.204 -1.999      H  1  RC1  0.1928
 23    H6  4.309  5.609 -2.388      H  1  RC1  0.1958
 24   H1'  7.560  4.764 -1.063      H  1  RC1  0.2029
 25   H3'  5.823  5.221 -4.460      H  1  RC1  0.0615
 26   H4'  7.638  7.457 -3.394      H  1  RC1  0.1174
 27   H41  1.571  2.051 -1.176      H  1  RC1  0.4234
 28   H42  2.661  0.830 -0.559      H  1  RC1  0.4234
 29  H2'1  7.570  3.677 -3.505      H  1  RC1  0.0972
 30  H5'1  5.462  8.536 -2.730      H  1  RC1  0.0679
 31  H5'2  5.916  8.473 -4.453      H  1  RC1  0.0679
@<TRIPOS>BOND
1 1 2 2
2 1 3 1
3 1 5 1
4 4 5 1
5 4 6 1
6 4 30 1
7 4 31 1
8 6 7 1
9 6 8 1
10 6 26 1
11 7 12 1
12 8 9 1
13 8 10 1
14 8 25 1
15 10 11 1
16 10 12 1
17 10 29 1
18 12 13 1
19 12 24 1
20 13 14 1
21 13 20 1
22 14 15 2
23 14 16 1
24 16 17 2
25 17 18 1
26 17 19 1
27 18 27 1
28 18 28 1
29 19 20 2
30 19 22 1
31 20 23 1
32 11 21 1
@<TRIPOS>SUBSTRUCTURE
1	RC1	1	GROUP	1 A	RC
